data/nesta/nesta_case3012wp_mp.m
%%%%%%%%%%%%%%%%%%%%%%%%%%%%%%%%%%%%%%%%%%%%%%%%%%%%%%%%%%%%%%%%%%%%%%%%%%%
%%%%                                                                  %%%%%
%%%%      NICTA Energy System Test Case Archive (NESTA) - v0.1.5      %%%%%
%%%%              Optimal Power Flow - Typical Operation              %%%%%
%%%%                       30 - October - 2014                        %%%%%
%%%%                                                                  %%%%%
%%%%%%%%%%%%%%%%%%%%%%%%%%%%%%%%%%%%%%%%%%%%%%%%%%%%%%%%%%%%%%%%%%%%%%%%%%%
%   Power flow data for Polish system - winter 2007-08 evening peak.
%   Please see CASEFORMAT for details on the case file format.
%
%   This case represents the Polish 400, 220 and 110 kV networks during
%   winter 2007-08 evening peak conditions.
%
%   This data was graciously provided by, and is distributed with the
%   permission of, Roman Korab <roman.korab@polsl.pl>.
%
function mpc = nesta_case3012wp_mp
mpc.version = '2';
mpc.baseMVA = 100.0;

%% area data
%	area	refbus
mpc.areas = [
	1	 1;
];

%% bus data
%	bus_i	type	Pd	Qd	Gs	Bs	area	Vm	Va	baseKV	zone	Vmax	Vmin
mpc.bus = [
	1	 1	 0.0	 0.0	 0.0	 0.0	 1	     1.1069	    -0.3107	 220.0	 1	     1.1100	     0.9500;
	2	 1	 0.0	 0.0	 0.0	 0.0	 1	     1.1079	     1.3812	 220.0	 1	     1.1100	     0.9500;
	3	 1	 0.0	 0.0	 0.0	 0.0	 1	     1.0662	   -30.7548	 220.0	 1	     1.1100	     0.9500;
	4	 1	 0.0	 0.0	 0.0	 0.0	 1	     1.0662	   -30.7638	 220.0	 1	     1.1100	     0.9500;
	5	 1	 0.0	 0.0	 0.0	 0.0	 1	     1.0773	   -32.9975	 220.0	 1	     1.1100	     0.9500;
	6	 1	 0.0	 0.0	 0.0	 0.0	 1	     1.0757	    -6.0732	 220.0	 1	     1.1100	     0.9500;
	7	 1	 0.0	 0.0	 0.0	 0.0	 1	     1.0757	    -6.0744	 220.0	 1	     1.1100	     0.9500;
	8	 1	 0.0	 0.0	 0.0	 0.0	 1	     1.0906	   -18.3769	 220.0	 1	     1.1100	     0.9500;
	9	 1	 0.0	 0.0	 0.0	 0.0	 1	     1.0909	   -18.3605	 220.0	 1	     1.1100	     0.9500;
	10	 1	 0.0	 0.0	 0.0	 0.0	 1	     1.1100	   -21.7821	 220.0	 1	     1.1100	     0.9500;
	11	 1	 0.0	 0.0	 0.0	 0.0	 1	     1.0257	   -13.2068	 400.0	 1	     1.0500	     0.9500;
	12	 1	 0.0	 0.0	 0.0	 0.0	 1	     1.0257	   -13.1980	 400.0	 1	     1.0500	     0.9500;
	13	 1	 0.0	 0.0	 0.0	 0.0	 1	     1.0119	   -17.6136	 400.0	 1	     1.0500	     0.9500;
	14	 1	 0.0	 0.0	 0.0	 0.0	 1	     1.0431	   -18.2096	 220.0	 1	     1.1100	     0.9500;
	15	 1	 0.0	 0.0	 0.0	 0.0	 1	     1.0433	   -18.2057	 220.0	 1	     1.1100	     0.9500;
	16	 1	 0.0	 0.0	 0.0	 0.0	 1	     1.0433	   -18.1957	 220.0	 1	     1.1100	     0.9500;
	17	 1	 0.0	 0.0	 0.0	 0.0	 1	     1.0312	   -22.6182	 220.0	 1	     1.1100	     0.9500;
	18	 1	 0.0	 0.0	 0.0	 0.0	 1	     1.0309	   -22.2417	 220.0	 1	     1.1100	     0.9500;
	19	 1	 0.0	 0.0	 0.0	 0.0	 1	     1.0270	   -11.5654	 400.0	 1	     1.0500	     0.9500;
	20	 1	 0.0	 0.0	 0.0	 0.0	 1	     1.0270	   -11.5554	 400.0	 1	     1.0500	     0.9500;
	21	 1	 0.0	 0.0	 0.0	 0.0	 1	     1.0220	   -21.3013	 400.0	 1	     1.0500	     0.9500;
	22	 1	 0.0	 0.0	 0.0	 0.0	 1	     1.0159	   -17.3338	 400.0	 1	     1.0500	     0.9500;
	23	 1	 0.0	 0.0	 0.0	 0.0	 1	     1.0159	   -17.3338	 400.0	 1	     1.0500	     0.9500;
	24	 2	 10.05	 20.1	 0.0	 0.0	 1	     1.0867	   -25.1625	 220.0	 1	     1.1100	     0.9500;
	25	 2	 10.05	 20.1	 0.0	 0.0	 1	     1.0867	   -25.1622	 220.0	 1	     1.1100	     0.9500;
	26	 1	 0.0	 0.0	 0.0	 0.0	 1	     1.0851	    -5.0889	 220.0	 1	     1.1100	     0.9500;
	27	 1	 0.0	 0.0	 0.0	 0.0	 1	     1.0852	    -5.1028	 220.0	 1	     1.1100	     0.9500;
	28	 1	 0.0	 0.0	 0.0	 0.0	 1	     1.0400	   -20.2276	 220.0	 1	     1.1100	     0.9500;
	29	 1	 0.0	 0.0	 0.0	 0.0	 1	     1.0400	   -20.2253	 220.0	 1	     1.1100	     0.9500;
	30	 1	 0.0	 0.0	 0.0	 0.0	 1	     1.0425	   -17.7034	 220.0	 1	     1.1100	     0.9500;
	31	 1	 0.0	 0.0	 0.0	 0.0	 1	     1.0425	   -17.7163	 220.0	 1	     1.1100	     0.9500;
	32	 1	 0.0	 0.0	 0.0	 0.0	 1	     1.0845	    -2.6769	 220.0	 1	     1.1100	     0.9500;
	33	 1	 0.0	 0.0	 0.0	 0.0	 1	     1.0844	    -2.7009	 220.0	 1	     1.1100	     0.9500;
	34	 1	 0.0	 0.0	 0.0	 0.0	 1	     1.0178	   -15.3612	 400.0	 1	     1.0500	     0.9500;
	35	 1	 0.0	 0.0	 0.0	 0.0	 1	     1.0178	   -15.3663	 400.0	 1	     1.0500	     0.9500;
	36	 1	 0.0	 0.0	 0.0	 0.0	 1	     1.0071	   -18.5486	 400.0	 1	     1.0500	     0.9500;
	37	 3	 48.68	 86.21	 0.0	 0.0	 1	     1.1100	     0.0000	 220.0	 1	     1.1100	     0.9500;
	38	 2	 54.54	 89.93	 0.0	 0.0	 1	     1.1100	     1.6791	 220.0	 1	     1.1100	     0.9500;
	39	 2	 20.1	 40.19	 0.0	 0.0	 1	     1.1100	     1.6712	 220.0	 1	     1.1100	     0.9500;
	40	 2	 60.29	 120.57	 0.0	 0.0	 1	     1.0475	     0.1608	 400.0	 1	     1.0500	     0.9500;
	41	 2	 60.29	 120.57	 0.0	 0.0	 1	     1.0475	     0.1677	 400.0	 1	     1.0500	     0.9500;
	42	 1	 0.0	 0.0	 0.0	 0.0	 1	     1.0320	   -19.5046	 220.0	 1	     1.1100	     0.9500;
	43	 1	 0.0	 0.0	 0.0	 0.0	 1	     1.0319	   -19.5083	 220.0	 1	     1.1100	     0.9500;
	44	 1	 0.0	 0.0	 0.0	 0.0	 1	     1.0500	    -1.4667	 400.0	 1	     1.0500	     0.9500;
	45	 1	 0.0	 0.0	 0.0	 0.0	 1	     1.0500	    -1.4702	 400.0	 1	     1.0500	     0.9500;
	46	 1	 0.0	 0.0	 0.0	 0.0	 1	     1.0396	   -18.5594	 220.0	 1	     1.1100	     0.9500;
	47	 1	 0.0	 0.0	 0.0	 0.0	 1	     1.0603	    -8.3839	 220.0	 1	     1.1100	     0.9500;
	48	 1	 0.0	 0.0	 0.0	 0.0	 1	     1.0603	    -8.4011	 220.0	 1	     1.1100	     0.9500;
	49	 1	 0.0	 0.0	 0.0	 0.0	 1	     1.0929	   -12.1453	 220.0	 2	     1.1100	     0.9500;
	50	 1	 0.0	 0.0	 0.0	 0.0	 1	     1.0912	   -11.7628	 220.0	 2	     1.1100	     0.9500;
	51	 1	 0.0	 0.0	 0.0	 0.0	 1	     1.1037	   -10.1283	 220.0	 2	     1.1100	     0.9500;
	52	 1	 0.0	 0.0	 0.0	 0.0	 1	     1.1036	   -10.1327	 220.0	 2	     1.1100	     0.9500;
	53	 1	 0.0	 0.0	 0.0	 0.0	 1	     1.0723	   -14.1137	 220.0	 2	     1.1100	     0.9500;
	54	 1	 3.23	 1.0	 0.0	 0.0	 1	     1.0996	    -8.9001	 220.0	 2	     1.1100	     0.9500;
	55	 1	 0.0	 0.0	 0.0	 0.0	 1	     1.0997	    -8.8993	 220.0	 2	     1.1100	     0.9500;
	56	 1	 0.0	 0.0	 0.0	 0.0	 1	     1.0360	    -9.0573	 400.0	 2	     1.0500	     0.9500;
	57	 2	 26.12	 60.29	 0.0	 0.0	 1	     1.1017	   -10.2558	 220.0	 2	     1.1100	     0.9500;
	58	 2	 54.26	 120.57	 0.0	 0.0	 1	     1.1017	   -10.2562	 220.0	 2	     1.1100	     0.9500;
	59	 2	 13.06	 30.14	 0.0	 0.0	 1	     1.1017	   -10.2573	 220.0	 2	     1.1100	     0.9500;
	60	 2	 26.12	 50.24	 0.0	 0.0	 1	     1.0500	    -8.4000	 400.0	 2	     1.0500	     0.9500;
	61	 2	 26.12	 50.24	 0.0	 0.0	 1	     1.0500	    -8.3931	 400.0	 2	     1.0500	     0.9500;
	62	 1	 0.0	 0.0	 0.0	 0.0	 1	     1.0942	    -9.6337	 220.0	 2	     1.1100	     0.9500;
	63	 1	 0.0	 0.0	 0.0	 0.0	 1	     1.0449	   -12.9663	 400.0	 2	     1.0500	     0.9500;
	64	 1	 0.0	 0.0	 0.0	 0.0	 1	     1.0449	   -12.9674	 400.0	 2	     1.0500	     0.9500;
	65	 1	 0.0	 0.0	 0.0	 0.0	 1	     1.0478	    -9.9362	 400.0	 2	     1.0500	     0.9500;
	66	 1	 0.0	 0.0	 0.0	 0.0	 1	     1.0784	   -12.3945	 220.0	 2	     1.1100	     0.9500;
	67	 1	 0.0	 0.0	 0.0	 0.0	 1	     1.0784	   -12.3893	 220.0	 2	     1.1100	     0.9500;
	68	 1	 0.0	 0.0	 0.0	 0.0	 1	     1.0457	    -9.6318	 400.0	 2	     1.0500	     0.9500;
	69	 1	 0.0	 0.0	 0.0	 0.0	 1	     1.0457	    -9.6338	 400.0	 2	     1.0500	     0.9500;
	70	 2	 13.06	 30.14	 0.0	 0.0	 1	     1.1084	    -8.8777	 220.0	 2	     1.1100	     0.9500;
	71	 2	 13.06	 30.14	 0.0	 0.0	 1	     1.1084	    -8.8793	 220.0	 2	     1.1100	     0.9500;
	72	 2	 13.06	 30.14	 0.0	 0.0	 1	     1.0433	    -9.2651	 400.0	 2	     1.0500	     0.9500;
	73	 2	 26.12	 60.29	 0.0	 0.0	 1	     1.0433	    -9.2666	 400.0	 2	     1.0500	     0.9500;
	74	 2	 149.71	 60.29	 0.0	 0.0	 1	     1.0986	   -11.2035	 220.0	 2	     1.1100	     0.9500;
	75	 1	 29.14	 10.05	 0.0	 0.0	 1	     1.0986	   -11.2051	 220.0	 2	     1.1100	     0.9500;
	76	 1	 0.0	 0.0	 0.0	 0.0	 1	     1.0966	    -9.8001	 220.0	 2	     1.1100	     0.9500;
	77	 1	 0.0	 0.0	 0.0	 0.0	 1	     1.0966	    -9.7965	 220.0	 2	     1.1100	     0.9500;
	78	 1	 0.0	 0.0	 0.0	 0.0	 1	     1.0975	   -11.1747	 220.0	 2	     1.1100	     0.9500;
	79	 1	 0.0	 0.0	 0.0	 0.0	 1	     1.0975	   -11.1784	 220.0	 2	     1.1100	     0.9500;
	80	 1	 0.0	 0.0	 0.0	 0.0	 1	     1.0500	   -10.5942	 400.0	 2	     1.0500	     0.9500;
	81	 1	 0.0	 0.0	 0.0	 0.0	 1	     1.0500	   -10.6057	 400.0	 2	     1.0500	     0.9500;
	82	 1	 0.0	 0.0	 0.0	 0.0	 1	     1.1000	   -11.2316	 220.0	 2	     1.1100	     0.9500;
	83	 1	 0.0	 0.0	 0.0	 0.0	 1	     1.1007	   -11.1054	 220.0	 2	     1.1100	     0.9500;
	84	 1	 0.0	 0.0	 0.0	 0.0	 1	     1.0799	   -11.2126	 220.0	 2	     1.1100	     0.9500;
	85	 1	 0.0	 0.0	 0.0	 0.0	 1	     1.0935	    -3.5943	 220.0	 3	     1.1100	     0.9500;
	86	 1	 9.35	 0.0	 0.0	 0.0	 1	     1.0946	    -8.1864	 220.0	 3	     1.1100	     0.9500;
	87	 1	 8.18	 0.0	 0.0	 0.0	 1	     1.0946	    -8.1866	 220.0	 3	     1.1100	     0.9500;
	88	 1	 0.0	 0.0	 0.0	 0.0	 1	     1.0996	    -2.0000	 220.0	 3	     1.1100	     0.9500;
	89	 1	 0.0	 0.0	 0.0	 0.0	 1	     1.0997	    -1.9873	 220.0	 3	     1.1100	     0.9500;
	90	 1	 0.0	 0.0	 0.0	 0.0	 1	     1.1094	    -1.6043	 220.0	 3	     1.1100	     0.9500;
	91	 1	 0.0	 0.0	 0.0	 0.0	 1	     1.1095	    -1.6066	 220.0	 3	     1.1100	     0.9500;
	92	 1	 0.0	 0.0	 0.0	 0.0	 1	     1.0747	    -3.3766	 220.0	 3	     1.1100	     0.9500;
	93	 1	 0.0	 0.0	 0.0	 0.0	 1	     1.0744	    -3.3832	 220.0	 3	     1.1100	     0.9500;
	94	 2	 28.13	 70.33	 0.0	 0.0	 1	     1.1088	    -1.1645	 220.0	 3	     1.1100	     0.9500;
	95	 2	 42.2	 103.49	 0.0	 0.0	 1	     1.1100	    -0.7041	 220.0	 3	     1.1100	     0.9500;
	96	 1	 7.72	 -24.99	 0.0	 0.0	 1	     1.0959	    -2.1354	 220.0	 3	     1.1100	     0.9500;
	97	 1	 0.0	 0.0	 0.0	 0.0	 1	     1.0959	    -2.1364	 220.0	 3	     1.1100	     0.9500;
	98	 2	 32.15	 142.68	 0.0	 0.0	 1	     1.0500	    -3.7839	 400.0	 3	     1.0500	     0.9500;
	99	 1	 0.0	 0.0	 0.0	 0.0	 1	     1.0499	    -3.8114	 400.0	 3	     1.0500	     0.9500;
	100	 1	 0.0	 0.0	 0.0	 0.0	 1	     1.0601	    -5.3044	 220.0	 3	     1.1100	     0.9500;
	101	 1	 0.0	 0.0	 0.0	 0.0	 1	     1.1085	    -1.1045	 220.0	 3	     1.1100	     0.9500;
	102	 1	 0.0	 0.0	 0.0	 0.0	 1	     1.1085	    -1.1018	 220.0	 3	     1.1100	     0.9500;
	103	 1	 45.11	 7.94	 0.0	 0.0	 1	     1.0963	    -3.3605	 220.0	 3	     1.1100	     0.9500;
	104	 1	 0.0	 0.0	 0.0	 0.0	 1	     1.0963	    -3.3649	 220.0	 3	     1.1100	     0.9500;
	105	 1	 0.0	 0.0	 0.0	 0.0	 1	     1.1042	    -0.9698	 220.0	 3	     1.1100	     0.9500;
	106	 1	 0.0	 0.0	 0.0	 0.0	 1	     1.1042	    -0.9718	 220.0	 3	     1.1100	     0.9500;
	107	 1	 0.0	 0.0	 0.0	 0.0	 1	     1.1005	    -2.9515	 220.0	 3	     1.1100	     0.9500;
	108	 1	 0.0	 0.0	 0.0	 0.0	 1	     1.1005	    -2.9573	 220.0	 3	     1.1100	     0.9500;
	109	 1	 0.0	 0.0	 0.0	 0.0	 1	     1.0434	    -1.5458	 400.0	 3	     1.0500	     0.9500;
	110	 1	 0.0	 0.0	 0.0	 0.0	 1	     1.0434	    -1.5473	 400.0	 3	     1.0500	     0.9500;
	111	 1	 0.0	 0.0	 0.0	 0.0	 1	     1.1068	    -0.8104	 220.0	 3	     1.1100	     0.9500;
	112	 1	 0.0	 0.0	 0.0	 0.0	 1	     1.1069	    -0.8089	 220.0	 3	     1.1100	     0.9500;
	113	 1	 0.0	 0.0	 0.0	 0.0	 1	     1.0811	    -2.7424	 220.0	 3	     1.1100	     0.9500;
	114	 1	 0.0	 0.0	 0.0	 0.0	 1	     1.0810	    -2.7552	 220.0	 3	     1.1100	     0.9500;
	115	 2	 29.36	 18.51	 0.0	 0.0	 1	     1.1009	    -2.2424	 220.0	 3	     1.1100	     0.9500;
	116	 1	 0.0	 0.0	 0.0	 0.0	 1	     1.1008	    -2.2548	 220.0	 3	     1.1100	     0.9500;
	117	 1	 0.0	 0.0	 0.0	 0.0	 1	     1.0946	    -8.1675	 220.0	 3	     1.1100	     0.9500;
	118	 1	 0.0	 0.0	 0.0	 0.0	 1	     1.0946	    -8.1645	 220.0	 3	     1.1100	     0.9500;
	119	 1	 0.0	 0.0	 0.0	 0.0	 1	     1.0607	    -3.7046	 220.0	 3	     1.1100	     0.9500;
	120	 1	 0.0	 0.0	 0.0	 0.0	 1	     1.0607	    -3.7060	 220.0	 3	     1.1100	     0.9500;
	121	 2	 0.0	 0.0	 0.0	 0.0	 1	     1.1100	    -0.8149	 220.0	 3	     1.1100	     0.9500;
	122	 2	 10.05	 44.21	 0.0	 0.0	 1	     1.1100	    -0.8129	 220.0	 3	     1.1100	     0.9500;
	123	 2	 7.03	 18.09	 0.0	 0.0	 1	     1.1100	    -0.9014	 220.0	 3	     1.1100	     0.9500;
	124	 2	 8.04	 21.1	 0.0	 0.0	 1	     1.1100	    -0.8895	 220.0	 3	     1.1100	     0.9500;
	125	 1	 0.0	 0.0	 0.0	 0.0	 1	     1.0961	    -3.6595	 220.0	 3	     1.1100	     0.9500;
	126	 1	 71.54	 7.94	 0.0	 0.0	 1	     1.0962	    -3.6674	 220.0	 3	     1.1100	     0.9500;
	127	 1	 0.0	 0.0	 0.0	 0.0	 1	     1.0791	    -3.9800	 220.0	 3	     1.1100	     0.9500;
	128	 1	 0.0	 0.0	 0.0	 0.0	 1	     1.0892	    -1.6916	 220.0	 3	     1.1100	     0.9500;
	129	 1	 0.0	 0.0	 0.0	 0.0	 1	     1.0892	    -1.6937	 220.0	 3	     1.1100	     0.9500;
	130	 1	 0.0	 0.0	 0.0	 0.0	 1	     1.0945	    -2.2011	 220.0	 3	     1.1100	     0.9500;
	131	 1	 0.0	 0.0	 0.0	 0.0	 1	     1.0946	    -2.1929	 220.0	 3	     1.1100	     0.9500;
	132	 1	 0.0	 0.0	 0.0	 0.0	 1	     1.0414	    -4.6894	 400.0	 3	     1.0500	     0.9500;
	133	 1	 0.0	 0.0	 0.0	 0.0	 1	     1.0414	    -4.6894	 400.0	 3	     1.0500	     0.9500;
	134	 2	 0.0	 0.0	 0.0	 0.0	 1	     1.1076	    -1.7541	 220.0	 3	     1.1100	     0.9500;
	135	 2	 9.04	 20.1	 0.0	 0.0	 1	     1.1076	    -1.7566	 220.0	 3	     1.1100	     0.9500;
	136	 2	 6.03	 15.07	 0.0	 0.0	 1	     1.0927	    -3.2536	 220.0	 3	     1.1100	     0.9500;
	137	 1	 0.0	 0.0	 0.0	 0.0	 1	     1.0927	    -3.2651	 220.0	 3	     1.1100	     0.9500;
	138	 1	 0.0	 0.0	 0.0	 0.0	 1	     1.0477	   -10.4314	 400.0	 3	     1.0500	     0.9500;
	139	 1	 0.0	 0.0	 0.0	 0.0	 1	     1.0478	   -10.4335	 400.0	 3	     1.0500	     0.9500;
	140	 1	 0.0	 0.0	 0.0	 0.0	 1	     1.0500	    -5.2379	 400.0	 3	     1.0500	     0.9500;
	141	 1	 0.0	 0.0	 0.0	 0.0	 1	     1.0500	    -5.2363	 400.0	 3	     1.0500	     0.9500;
	142	 1	 0.0	 0.0	 0.0	 0.0	 1	     1.0765	    -4.2370	 220.0	 3	     1.1100	     0.9500;
	143	 1	 0.0	 0.0	 0.0	 0.0	 1	     1.0766	    -4.2345	 220.0	 3	     1.1100	     0.9500;
	144	 2	 18.34	 15.86	 0.0	 0.0	 1	     1.1099	    -0.4209	 220.0	 3	     1.1100	     0.9500;
	145	 2	 41.01	 43.07	 0.0	 0.0	 1	     1.1100	    -0.3976	 220.0	 3	     1.1100	     0.9500;
	146	 2	 28.13	 66.31	 0.0	 0.0	 1	     1.0397	    -3.7365	 400.0	 3	     1.0500	     0.9500;
	147	 1	 0.0	 0.0	 0.0	 0.0	 1	     1.0397	    -3.7355	 400.0	 3	     1.0500	     0.9500;
	148	 1	 0.0	 0.0	 0.0	 0.0	 1	     1.0950	    -3.4504	 220.0	 3	     1.1100	     0.9500;
	149	 1	 0.0	 0.0	 0.0	 0.0	 1	     1.0951	    -3.4433	 220.0	 3	     1.1100	     0.9500;
	150	 1	 0.0	 0.0	 0.0	 0.0	 1	     1.1097	    -0.8893	 220.0	 3	     1.1100	     0.9500;
	151	 1	 0.0	 0.0	 0.0	 0.0	 1	     1.0985	    -3.0680	 220.0	 3	     1.1100	     0.9500;
	152	 2	 0.0	 0.0	 0.0	 0.0	 1	     1.0747	    -3.3768	 220.0	 3	     1.1100	     0.9500;
	153	 2	 0.0	 0.0	 0.0	 0.0	 1	     1.0745	    -3.3834	 220.0	 3	     1.1100	     0.9500;
	154	 2	 7.84	 20.1	 0.0	 0.0	 1	     1.0886	   -12.2801	 220.0	 4	     1.1100	     0.9500;
	155	 2	 8.04	 20.1	 0.0	 0.0	 1	     1.0886	   -12.2918	 220.0	 4	     1.1100	     0.9500;
	156	 1	 0.0	 0.0	 0.0	 0.0	 1	     1.0635	   -13.6467	 220.0	 4	     1.1100	     0.9500;
	157	 1	 0.0	 0.0	 0.0	 0.0	 1	     1.0635	   -13.6482	 220.0	 4	     1.1100	     0.9500;
	158	 1	 0.0	 0.0	 0.0	 0.0	 1	     1.0549	   -15.4025	 220.0	 4	     1.1100	     0.9500;
	159	 1	 0.0	 0.0	 0.0	 0.0	 1	     1.0809	   -11.9306	 220.0	 4	     1.1100	     0.9500;
	160	 1	 0.0	 0.0	 0.0	 0.0	 1	     1.0808	   -11.9400	 220.0	 4	     1.1100	     0.9500;
	161	 1	 0.0	 0.0	 0.0	 0.0	 1	     1.0224	   -11.5635	 400.0	 4	     1.0500	     0.9500;
	162	 1	 0.0	 0.0	 0.0	 0.0	 1	     1.0223	   -11.5662	 400.0	 4	     1.0500	     0.9500;
	163	 1	 0.0	 0.0	 0.0	 0.0	 1	     1.0262	   -27.5795	 220.0	 4	     1.1100	     0.9500;
	164	 1	 0.0	 0.0	 0.0	 0.0	 1	     1.0771	   -34.4573	 220.0	 4	     1.1100	     0.9500;
	165	 1	 0.0	 0.0	 0.0	 0.0	 1	     1.0771	   -34.4573	 220.0	 4	     1.1100	     0.9500;
	166	 1	 0.0	 0.0	 0.0	 0.0	 1	     1.0717	   -29.9906	 220.0	 4	     1.1100	     0.9500;
	167	 1	 0.0	 0.0	 0.0	 0.0	 1	     1.0717	   -29.9906	 220.0	 4	     1.1100	     0.9500;
	168	 1	 0.0	 0.0	 0.0	 0.0	 1	     1.0543	   -15.6395	 220.0	 4	     1.1100	     0.9500;
	169	 2	 0.0	 0.0	 0.0	 0.0	 1	     1.0810	   -17.4391	 220.0	 4	     1.1100	     0.9500;
	170	 2	 0.0	 0.0	 0.0	 0.0	 1	     1.0810	   -17.4536	 220.0	 4	     1.1100	     0.9500;
	171	 1	 0.0	 0.0	 0.0	 0.0	 1	     1.1100	   -14.2548	 220.0	 4	     1.1100	     0.9500;
	172	 2	 12.06	 30.14	 0.0	 0.0	 1	     1.1041	   -32.3577	 220.0	 4	     1.1100	     0.9500;
	173	 2	 9.39	 2.43	 0.0	 0.0	 1	     1.1041	   -32.3581	 220.0	 4	     1.1100	     0.9500;
	174	 2	 12.06	 30.14	 0.0	 0.0	 1	     1.0361	   -29.5630	 400.0	 4	     1.0500	     0.9500;
	175	 2	 24.11	 60.29	 0.0	 0.0	 1	     1.0361	   -29.5591	 400.0	 4	     1.0500	     0.9500;
	176	 1	 0.0	 0.0	 0.0	 0.0	 1	     0.9948	   -26.4703	 220.0	 4	     1.1100	     0.9500;
	177	 1	 0.0	 0.0	 0.0	 0.0	 1	     0.9949	   -26.4788	 220.0	 4	     1.1100	     0.9500;
	178	 1	 0.0	 0.0	 0.0	 0.0	 1	     1.0483	   -21.8039	 220.0	 4	     1.1100	     0.9500;
	179	 1	 0.0	 0.0	 0.0	 0.0	 1	     1.0483	   -21.8080	 220.0	 4	     1.1100	     0.9500;
	180	 2	 26.12	 64.3	 0.0	 0.0	 1	     1.1100	    -8.1601	 220.0	 4	     1.1100	     0.9500;
	181	 2	 26.12	 64.3	 0.0	 0.0	 1	     1.1100	    -8.1681	 220.0	 4	     1.1100	     0.9500;
	182	 2	 26.12	 64.51	 0.0	 0.0	 1	     1.1100	    -8.1456	 220.0	 4	     1.1100	     0.9500;
	183	 2	 26.12	 64.51	 0.0	 0.0	 1	     1.0494	    -7.5233	 400.0	 4	     1.0500	     0.9500;
	184	 1	 0.0	 0.0	 0.0	 0.0	 1	     1.0494	    -7.5248	 400.0	 4	     1.0500	     0.9500;
	185	 1	 0.0	 0.0	 0.0	 0.0	 1	     1.0807	   -34.4927	 220.0	 4	     1.1100	     0.9500;
	186	 1	 0.0	 0.0	 0.0	 0.0	 1	     1.0807	   -34.4927	 220.0	 4	     1.1100	     0.9500;
	187	 1	 0.0	 0.0	 0.0	 0.0	 1	     1.0081	   -12.6487	 400.0	 4	     1.0500	     0.9500;
	188	 1	 0.0	 0.0	 0.0	 0.0	 1	     0.9789	   -18.4399	 400.0	 4	     1.0500	     0.9500;
	189	 1	 0.0	 0.0	 0.0	 0.0	 1	     1.0206	   -10.6742	 400.0	 4	     1.0500	     0.9500;
	190	 1	 0.0	 0.0	 0.0	 0.0	 1	     1.0206	   -10.6663	 400.0	 4	     1.0500	     0.9500;
	191	 2	 12.06	 30.14	 0.0	 0.0	 1	     1.0830	   -17.5859	 220.0	 4	     1.1100	     0.9500;
	192	 2	 14.66	 30.65	 0.0	 0.0	 1	     1.0827	   -17.6277	 220.0	 4	     1.1100	     0.9500;
	193	 2	 38.18	 64.3	 0.0	 0.0	 1	     1.0324	   -10.9984	 400.0	 4	     1.0500	     0.9500;
	194	 1	 0.0	 0.0	 0.0	 0.0	 1	     1.0142	   -34.1292	 220.0	 4	     1.1100	     0.9500;
	195	 1	 0.0	 0.0	 0.0	 0.0	 1	     1.0142	   -34.1342	 220.0	 4	     1.1100	     0.9500;
	196	 1	 0.0	 0.0	 0.0	 0.0	 1	     1.0765	   -34.5414	 220.0	 4	     1.1100	     0.9500;
	197	 1	 0.0	 0.0	 0.0	 0.0	 1	     1.0765	   -34.5425	 220.0	 4	     1.1100	     0.9500;
	198	 1	 0.0	 0.0	 0.0	 0.0	 1	     1.0206	   -28.7348	 220.0	 4	     1.1100	     0.9500;
	199	 1	 0.0	 0.0	 0.0	 0.0	 1	     1.0206	   -28.7266	 220.0	 4	     1.1100	     0.9500;
	200	 1	 0.0	 0.0	 0.0	 0.0	 1	     0.9803	   -30.3890	 400.0	 4	     1.0500	     0.9500;
...
];

%% generator data
%	bus	Pg	Qg	Qmax	Qmin	Vg	mBase	status	Pmax	Pmin	Pc1	Pc2	Qc1min	Qc1max	Qc2min	Qc2max	ramp_agc	ramp_10	ramp_30	ramp_q	apf
mpc.gen = [
	24	 110.0	 85.19	 140.0	 -49.0	 1.08673	 235.3	 1	 221.0	 110.0	 0.0	 0.0	 0.0	 0.0	 0.0	 0.0	 0.0	 0.0	 0.0	 0.0	 0.0;
	25	 135.0	 -22.0	 124.0	 -22.0	 1.08668	 235.3	 1	 200.0	 135.0	 0.0	 0.0	 0.0	 0.0	 0.0	 0.0	 0.0	 0.0	 0.0	 0.0	 0.0;
	37	 370.0	 74.67	 190.0	 -19.0	 1.11	 426.0	 1	 370.0	 240.0	 0.0	 0.0	 0.0	 0.0	 0.0	 0.0	 0.0	 0.0	 0.0	 0.0	 0.0;
	37	 370.0	 74.67	 190.0	 -19.0	 1.11	 426.0	 1	 370.0	 240.0	 0.0	 0.0	 0.0	 0.0	 0.0	 0.0	 0.0	 0.0	 0.0	 0.0	 0.0;
	38	 370.0	 16.41	 190.0	 -19.0	 1.11	 426.0	 1	 370.0	 240.0	 0.0	 0.0	 0.0	 0.0	 0.0	 0.0	 0.0	 0.0	 0.0	 0.0	 0.0;
	38	 370.0	 16.41	 190.0	 -19.0	 1.11	 426.0	 1	 370.0	 240.0	 0.0	 0.0	 0.0	 0.0	 0.0	 0.0	 0.0	 0.0	 0.0	 0.0	 0.0;
	39	 370.0	 97.0	 190.0	 -19.0	 1.11	 426.0	 1	 370.0	 240.0	 0.0	 0.0	 0.0	 0.0	 0.0	 0.0	 0.0	 0.0	 0.0	 0.0	 0.0;
	40	 370.0	 69.26	 190.0	 -19.0	 1.04749	 426.0	 1	 370.0	 240.0	 0.0	 0.0	 0.0	 0.0	 0.0	 0.0	 0.0	 0.0	 0.0	 0.0	 0.0;
	40	 370.0	 69.26	 190.0	 -19.0	 1.04749	 426.0	 1	 370.0	 240.0	 0.0	 0.0	 0.0	 0.0	 0.0	 0.0	 0.0	 0.0	 0.0	 0.0	 0.0;
	40	 370.0	 69.26	 190.0	 -19.0	 1.04749	 426.0	 1	 370.0	 240.0	 0.0	 0.0	 0.0	 0.0	 0.0	 0.0	 0.0	 0.0	 0.0	 0.0	 0.0;
	41	 370.0	 -18.99	 190.0	 -19.0	 1.04746	 426.0	 1	 370.0	 240.0	 0.0	 0.0	 0.0	 0.0	 0.0	 0.0	 0.0	 0.0	 0.0	 0.0	 0.0;
	41	 370.0	 -18.99	 190.0	 -19.0	 1.04746	 426.0	 1	 370.0	 240.0	 0.0	 0.0	 0.0	 0.0	 0.0	 0.0	 0.0	 0.0	 0.0	 0.0	 0.0;
	41	 370.0	 -18.99	 190.0	 -19.0	 1.04746	 426.0	 1	 370.0	 240.0	 0.0	 0.0	 0.0	 0.0	 0.0	 0.0	 0.0	 0.0	 0.0	 0.0	 0.0;
	57	 111.38	 41.84	 152.0	 -33.0	 1.10173	 235.0	 1	 215.0	 110.0	 0.0	 0.0	 0.0	 0.0	 0.0	 0.0	 0.0	 0.0	 0.0	 0.0	 0.0;
	57	 126.35	 41.84	 152.0	 -33.0	 1.10173	 235.0	 1	 220.0	 125.0	 0.0	 0.0	 0.0	 0.0	 0.0	 0.0	 0.0	 0.0	 0.0	 0.0	 0.0;
	58	 164.41	 85.9	 149.0	 -33.0	 1.10171	 235.0	 1	 225.0	 125.0	 0.0	 0.0	 0.0	 0.0	 0.0	 0.0	 0.0	 0.0	 0.0	 0.0	 0.0;
	58	 0.0	 0.0	 149.0	 -33.0	 1.0	 235.0	 0	 225.0	 120.0	 0.0	 0.0	 0.0	 0.0	 0.0	 0.0	 0.0	 0.0	 0.0	 0.0	 0.0;
	58	 153.88	 85.9	 149.0	 -33.0	 1.10171	 235.0	 1	 225.0	 110.0	 0.0	 0.0	 0.0	 0.0	 0.0	 0.0	 0.0	 0.0	 0.0	 0.0	 0.0;
	59	 110.0	 29.72	 149.0	 -33.0	 1.10172	 235.0	 1	 225.0	 110.0	 0.0	 0.0	 0.0	 0.0	 0.0	 0.0	 0.0	 0.0	 0.0	 0.0	 0.0;
	60	 535.0	 177.45	 363.0	 -47.0	 1.05	 588.0	 1	 535.0	 255.0	 0.0	 0.0	 0.0	 0.0	 0.0	 0.0	 0.0	 0.0	 0.0	 0.0	 0.0;
	61	 560.0	 36.63	 348.0	 -100.0	 1.05	 588.0	 1	 560.0	 250.0	 0.0	 0.0	 0.0	 0.0	 0.0	 0.0	 0.0	 0.0	 0.0	 0.0	 0.0;
	70	 129.0	 -6.0	 105.0	 -11.0	 1.10839	 235.0	 1	 225.0	 129.0	 0.0	 0.0	 0.0	 0.0	 0.0	 0.0	 0.0	 0.0	 0.0	 0.0	 0.0;
	71	 129.0	 55.33	 105.0	 -11.0	 1.10837	 235.0	 1	 225.0	 129.0	 0.0	 0.0	 0.0	 0.0	 0.0	 0.0	 0.0	 0.0	 0.0	 0.0	 0.0;
	71	 0.0	 0.0	 99.0	 -10.0	 1.0	 235.0	 0	 225.0	 129.0	 0.0	 0.0	 0.0	 0.0	 0.0	 0.0	 0.0	 0.0	 0.0	 0.0	 0.0;
	72	 0.0	 0.0	 105.0	 -11.0	 1.0	 235.0	 0	 225.0	 129.0	 0.0	 0.0	 0.0	 0.0	 0.0	 0.0	 0.0	 0.0	 0.0	 0.0	 0.0;
	72	 129.0	 -11.0	 105.0	 -11.0	 1.04326	 235.0	 1	 225.0	 129.0	 0.0	 0.0	 0.0	 0.0	 0.0	 0.0	 0.0	 0.0	 0.0	 0.0	 0.0;
	73	 129.0	 -10.0	 99.0	 -10.0	 1.04328	 235.0	 1	 225.0	 129.0	 0.0	 0.0	 0.0	 0.0	 0.0	 0.0	 0.0	 0.0	 0.0	 0.0	 0.0;
	73	 129.0	 -11.0	 105.0	 -11.0	 1.04328	 235.0	 1	 225.0	 129.0	 0.0	 0.0	 0.0	 0.0	 0.0	 0.0	 0.0	 0.0	 0.0	 0.0	 0.0;
	74	 112.0	 60.0	 60.0	 0.0	 1.09864	 120.0	 1	 112.0	 0.0	 0.0	 0.0	 0.0	 0.0	 0.0	 0.0	 0.0	 0.0	 0.0	 0.0	 0.0;
	94	 220.0	 95.65	 131.0	 -6.0	 1.10879	 270.6	 1	 220.0	 125.0	 0.0	 0.0	 0.0	 0.0	 0.0	 0.0	 0.0	 0.0	 0.0	 0.0	 0.0;
	94	 225.0	 95.65	 131.0	 -6.0	 1.10879	 270.6	 1	 225.0	 140.0	 0.0	 0.0	 0.0	 0.0	 0.0	 0.0	 0.0	 0.0	 0.0	 0.0	 0.0;
	95	 225.0	 72.13	 131.0	 -6.0	 1.11	 270.6	 1	 225.0	 130.0	 0.0	 0.0	 0.0	 0.0	 0.0	 0.0	 0.0	 0.0	 0.0	 0.0	 0.0;
	95	 225.0	 72.13	 131.0	 -6.0	 1.11	 270.6	 1	 225.0	 125.0	 0.0	 0.0	 0.0	 0.0	 0.0	 0.0	 0.0	 0.0	 0.0	 0.0	 0.0;
	95	 225.0	 72.13	 131.0	 -6.0	 1.11	 270.6	 1	 225.0	 130.0	 0.0	 0.0	 0.0	 0.0	 0.0	 0.0	 0.0	 0.0	 0.0	 0.0	 0.0;
	98	 383.0	 36.08	 213.0	 -31.0	 1.05	 426.0	 1	 383.0	 220.0	 0.0	 0.0	 0.0	 0.0	 0.0	 0.0	 0.0	 0.0	 0.0	 0.0	 0.0;
	98	 380.0	 21.68	 119.0	 -31.0	 1.05	 435.3	 1	 380.0	 220.0	 0.0	 0.0	 0.0	 0.0	 0.0	 0.0	 0.0	 0.0	 0.0	 0.0	 0.0;
	115	 12.0	 0.0	 0.0	 0.0	 1.10086	 12.0	 1	 12.0	 0.0	 0.0	 0.0	 0.0	 0.0	 0.0	 0.0	 0.0	 0.0	 0.0	 0.0	 0.0;
	115	 6.0	 0.0	 0.0	 0.0	 1.10086	 6.0	 1	 6.0	 0.0	 0.0	 0.0	 0.0	 0.0	 0.0	 0.0	 0.0	 0.0	 0.0	 0.0	 0.0;
	121	 0.0	 0.0	 120.0	 -10.0	 1.0	 270.6	 0	 225.0	 120.0	 0.0	 0.0	 0.0	 0.0	 0.0	 0.0	 0.0	 0.0	 0.0	 0.0	 0.0;
	122	 225.0	 61.33	 120.0	 -10.0	 1.11	 270.6	 1	 225.0	 120.0	 0.0	 0.0	 0.0	 0.0	 0.0	 0.0	 0.0	 0.0	 0.0	 0.0	 0.0;
	123	 120.0	 66.3	 73.0	 -1.0	 1.10998	 150.0	 1	 120.0	 70.0	 0.0	 0.0	 0.0	 0.0	 0.0	 0.0	 0.0	 0.0	 0.0	 0.0	 0.0;
	124	 120.0	 16.34	 73.0	 -1.0	 1.11	 150.0	 1	 120.0	 70.0	 0.0	 0.0	 0.0	 0.0	 0.0	 0.0	 0.0	 0.0	 0.0	 0.0	 0.0;
	134	 0.0	 0.0	 80.0	 0.0	 1.0	 150.0	 0	 120.0	 70.0	 0.0	 0.0	 0.0	 0.0	 0.0	 0.0	 0.0	 0.0	 0.0	 0.0	 0.0;
	135	 120.0	 80.0	 80.0	 0.0	 1.10756	 150.0	 1	 120.0	 70.0	 0.0	 0.0	 0.0	 0.0	 0.0	 0.0	 0.0	 0.0	 0.0	 0.0	 0.0;
	136	 80.0	 31.0	 31.0	 0.0	 1.09273	 117.5	 1	 110.0	 80.0	 0.0	 0.0	 0.0	 0.0	 0.0	 0.0	 0.0	 0.0	 0.0	 0.0	 0.0;
	144	 215.0	 44.29	 135.0	 -35.0	 1.10995	 270.6	 1	 215.0	 135.0	 0.0	 0.0	 0.0	 0.0	 0.0	 0.0	 0.0	 0.0	 0.0	 0.0	 0.0;
	145	 215.0	 41.96	 135.0	 -35.0	 1.11	 270.6	 1	 215.0	 135.0	 0.0	 0.0	 0.0	 0.0	 0.0	 0.0	 0.0	 0.0	 0.0	 0.0	 0.0;
	145	 225.0	 43.99	 140.0	 -35.0	 1.11	 270.6	 1	 225.0	 135.0	 0.0	 0.0	 0.0	 0.0	 0.0	 0.0	 0.0	 0.0	 0.0	 0.0	 0.0;
	146	 225.0	 -36.0	 140.0	 -36.0	 1.03968	 270.6	 1	 225.0	 135.0	 0.0	 0.0	 0.0	 0.0	 0.0	 0.0	 0.0	 0.0	 0.0	 0.0	 0.0;
	146	 220.0	 -36.0	 137.0	 -36.0	 1.03968	 270.6	 1	 220.0	 135.0	 0.0	 0.0	 0.0	 0.0	 0.0	 0.0	 0.0	 0.0	 0.0	 0.0	 0.0;
	152	 0.0	 0.0	 72.0	 -29.0	 1.0	 150.0	 0	 135.0	 -135.0	 0.0	 0.0	 0.0	 0.0	 0.0	 0.0	 0.0	 0.0	 0.0	 0.0	 0.0;
	152	 0.0	 0.0	 72.0	 -29.0	 1.0	 150.0	 0	 135.0	 -135.0	 0.0	 0.0	 0.0	 0.0	 0.0	 0.0	 0.0	 0.0	 0.0	 0.0	 0.0;
	153	 0.0	 0.0	 72.0	 -29.0	 1.0	 150.0	 0	 135.0	 -135.0	 0.0	 0.0	 0.0	 0.0	 0.0	 0.0	 0.0	 0.0	 0.0	 0.0	 0.0;
	153	 0.0	 0.0	 72.0	 -29.0	 1.0	 150.0	 0	 135.0	 -135.0	 0.0	 0.0	 0.0	 0.0	 0.0	 0.0	 0.0	 0.0	 0.0	 0.0	 0.0;
	154	 120.0	 85.0	 85.0	 -15.0	 1.0886	 150.0	 1	 120.0	 94.0	 0.0	 0.0	 0.0	 0.0	 0.0	 0.0	 0.0	 0.0	 0.0	 0.0	 0.0;
	155	 120.0	 85.0	 85.0	 -15.0	 1.0886	 150.0	 1	 120.0	 94.0	 0.0	 0.0	 0.0	 0.0	 0.0	 0.0	 0.0	 0.0	 0.0	 0.0	 0.0;
	155	 0.0	 0.0	 85.0	 -15.0	 1.0	 150.0	 0	 120.0	 94.0	 0.0	 0.0	 0.0	 0.0	 0.0	 0.0	 0.0	 0.0	 0.0	 0.0	 0.0;
	169	 0.0	 0.0	 25.0	 0.0	 1.0	 51.4	 0	 50.0	 40.0	 0.0	 0.0	 0.0	 0.0	 0.0	 0.0	 0.0	 0.0	 0.0	 0.0	 0.0;
	170	 0.0	 0.0	 90.0	 -15.0	 1.0	 150.0	 0	 120.0	 80.0	 0.0	 0.0	 0.0	 0.0	 0.0	 0.0	 0.0	 0.0	 0.0	 0.0	 0.0;
	170	 0.0	 0.0	 25.0	 0.0	 1.0	 51.4	 0	 50.0	 45.0	 0.0	 0.0	 0.0	 0.0	 0.0	 0.0	 0.0	 0.0	 0.0	 0.0	 0.0;
	172	 100.0	 119.0	 119.0	 -31.0	 1.10415	 252.4	 1	 232.0	 100.0	 0.0	 0.0	 0.0	 0.0	 0.0	 0.0	 0.0	 0.0	 0.0	 0.0	 0.0;
	172	 0.0	 0.0	 111.0	 -21.0	 1.0	 237.5	 0	 205.0	 135.0	 0.0	 0.0	 0.0	 0.0	 0.0	 0.0	 0.0	 0.0	 0.0	 0.0	 0.0;
	173	 0.0	 0.0	 111.0	 -21.0	 1.0	 237.5	 0	 205.0	 135.0	 0.0	 0.0	 0.0	 0.0	 0.0	 0.0	 0.0	 0.0	 0.0	 0.0	 0.0;
	173	 0.0	 0.0	 102.0	 -15.0	 1.0	 252.4	 0	 222.0	 90.0	 0.0	 0.0	 0.0	 0.0	 0.0	 0.0	 0.0	 0.0	 0.0	 0.0	 0.0;
	174	 90.0	 -15.0	 102.0	 -15.0	 1.03614	 252.4	 1	 222.0	 90.0	 0.0	 0.0	 0.0	 0.0	 0.0	 0.0	 0.0	 0.0	 0.0	 0.0	 0.0;
	175	 90.0	 62.7	 102.0	 -15.0	 1.03615	 252.4	 1	 222.0	 90.0	 0.0	 0.0	 0.0	 0.0	 0.0	 0.0	 0.0	 0.0	 0.0	 0.0	 0.0;
	175	 100.0	 56.73	 93.0	 -10.0	 1.03615	 252.4	 1	 232.0	 100.0	 0.0	 0.0	 0.0	 0.0	 0.0	 0.0	 0.0	 0.0	 0.0	 0.0	 0.0;
	180	 261.0	 99.0	 127.0	 -35.0	 1.11	 287.3	 1	 261.0	 104.0	 0.0	 0.0	 0.0	 0.0	 0.0	 0.0	 0.0	 0.0	 0.0	 0.0	 0.0;
	180	 261.0	 99.0	 127.0	 -35.0	 1.11	 287.3	 1	 261.0	 104.0	 0.0	 0.0	 0.0	 0.0	 0.0	 0.0	 0.0	 0.0	 0.0	 0.0	 0.0;
	181	 206.0	 103.0	 103.0	 -17.0	 1.11	 238.4	 1	 206.0	 120.0	 0.0	 0.0	 0.0	 0.0	 0.0	 0.0	 0.0	 0.0	 0.0	 0.0	 0.0;
	181	 261.0	 127.0	 127.0	 -35.0	 1.11	 287.3	 1	 261.0	 104.0	 0.0	 0.0	 0.0	 0.0	 0.0	 0.0	 0.0	 0.0	 0.0	 0.0	 0.0;
	182	 235.0	 10.81	 145.0	 -38.0	 1.11	 263.9	 1	 235.0	 94.0	 0.0	 0.0	 0.0	 0.0	 0.0	 0.0	 0.0	 0.0	 0.0	 0.0	 0.0;
	182	 235.0	 10.81	 145.0	 -38.0	 1.11	 263.9	 1	 235.0	 94.0	 0.0	 0.0	 0.0	 0.0	 0.0	 0.0	 0.0	 0.0	 0.0	 0.0	 0.0;
	183	 206.0	 103.0	 103.0	 -17.0	 1.0494	 238.4	 1	 206.0	 120.0	 0.0	 0.0	 0.0	 0.0	 0.0	 0.0	 0.0	 0.0	 0.0	 0.0	 0.0;
	183	 206.0	 103.0	 103.0	 -17.0	 1.0494	 238.4	 1	 206.0	 120.0	 0.0	 0.0	 0.0	 0.0	 0.0	 0.0	 0.0	 0.0	 0.0	 0.0	 0.0;
	191	 200.0	 104.0	 104.0	 -23.0	 1.08298	 233.2	 1	 200.0	 150.0	 0.0	 0.0	 0.0	 0.0	 0.0	 0.0	 0.0	 0.0	 0.0	 0.0	 0.0;
	192	 200.0	 104.0	 104.0	 -23.0	 1.08268	 233.2	 1	 200.0	 150.0	 0.0	 0.0	 0.0	 0.0	 0.0	 0.0	 0.0	 0.0	 0.0	 0.0	 0.0;
	192	 0.0	 0.0	 104.0	 -23.0	 1.0	 233.2	 0	 200.0	 145.0	 0.0	 0.0	 0.0	 0.0	 0.0	 0.0	 0.0	 0.0	 0.0	 0.0	 0.0;
	192	 0.0	 0.0	 104.0	 -23.0	 1.0	 233.2	 0	 200.0	 145.0	 0.0	 0.0	 0.0	 0.0	 0.0	 0.0	 0.0	 0.0	 0.0	 0.0	 0.0;
	193	 464.0	 294.0	 294.0	 -259.0	 1.03244	 464.0	 1	 464.0	 208.0	 0.0	 0.0	 0.0	 0.0	 0.0	 0.0	 0.0	 0.0	 0.0	 0.0	 0.0;
	208	 188.0	 100.0	 100.0	 0.0	 1.06751	 218.3	 1	 188.0	 76.0	 0.0	 0.0	 0.0	 0.0	 0.0	 0.0	 0.0	 0.0	 0.0	 0.0	 0.0;
	240	 179.0	 -62.0	 105.0	 -62.0	 1.02222	 209.0	 1	 179.0	 -200.0	 0.0	 0.0	 0.0	 0.0	 0.0	 0.0	 0.0	 0.0	 0.0	 0.0	 0.0;
	240	 179.0	 -62.0	 105.0	 -62.0	 1.02222	 209.0	 1	 179.0	 -200.0	 0.0	 0.0	 0.0	 0.0	 0.0	 0.0	 0.0	 0.0	 0.0	 0.0	 0.0;
	240	 0.0	 0.0	 160.0	 -100.0	 1.0	 209.0	 0	 179.0	 -200.0	 0.0	 0.0	 0.0	 0.0	 0.0	 0.0	 0.0	 0.0	 0.0	 0.0	 0.0;
	241	 179.0	 -19.63	 160.0	 -100.0	 1.02222	 209.0	 1	 179.0	 -200.0	 0.0	 0.0	 0.0	 0.0	 0.0	 0.0	 0.0	 0.0	 0.0	 0.0	 0.0;
	244	 220.0	 10.07	 100.0	 0.0	 1.11	 177.1	 1	 220.0	 112.5	 0.0	 0.0	 0.0	 0.0	 0.0	 0.0	 0.0	 0.0	 0.0	 0.0	 0.0;
	254	 55.0	 20.0	 20.0	 0.0	 1.10528	 78.8	 1	 55.0	 23.0	 0.0	 0.0	 0.0	 0.0	 0.0	 0.0	 0.0	 0.0	 0.0	 0.0	 0.0;
	254	 50.0	 20.0	 20.0	 0.0	 1.10528	 68.8	 1	 50.0	 25.0	 0.0	 0.0	 0.0	 0.0	 0.0	 0.0	 0.0	 0.0	 0.0	 0.0	 0.0;
	254	 50.0	 20.0	 20.0	 0.0	 1.10528	 68.8	 1	 50.0	 25.0	 0.0	 0.0	 0.0	 0.0	 0.0	 0.0	 0.0	 0.0	 0.0	 0.0	 0.0;
	254	 23.0	 20.0	 20.0	 0.0	 1.10528	 27.6	 1	 23.0	 7.0	 0.0	 0.0	 0.0	 0.0	 0.0	 0.0	 0.0	 0.0	 0.0	 0.0	 0.0;
	267	 2.1	 1.0	 1.0	 0.0	 1.05826	 0.7	 1	 2.1	 0.45	 0.0	 0.0	 0.0	 0.0	 0.0	 0.0	 0.0	 0.0	 0.0	 0.0	 0.0;
	268	 2.1	 1.0	 1.0	 0.0	 1.07506	 0.7	 1	 2.1	 0.45	 0.0	 0.0	 0.0	 0.0	 0.0	 0.0	 0.0	 0.0	 0.0	 0.0	 0.0;
	278	 0.0	 0.0	 5.0	 0.0	 1.0	 10.3	 0	 7.15	 5.85	 0.0	 0.0	 0.0	 0.0	 0.0	 0.0	 0.0	 0.0	 0.0	 0.0	 0.0;
	279	 0.0	 0.0	 5.0	 0.0	 1.0	 10.3	 0	 7.15	 5.85	 0.0	 0.0	 0.0	 0.0	 0.0	 0.0	 0.0	 0.0	 0.0	 0.0	 0.0;
	295	 5.0	 3.75	 3.75	 0.0	 1.09445	 5.0	 1	 5.0	 1.0	 0.0	 0.0	 0.0	 0.0	 0.0	 0.0	 0.0	 0.0	 0.0	 0.0	 0.0;
	295	 5.0	 3.75	 3.75	 0.0	 1.09445	 5.0	 1	 5.0	 1.0	 0.0	 0.0	 0.0	 0.0	 0.0	 0.0	 0.0	 0.0	 0.0	 0.0	 0.0;
	295	 5.0	 3.75	 3.75	 0.0	 1.09445	 5.0	 1	 5.0	 1.0	 0.0	 0.0	 0.0	 0.0	 0.0	 0.0	 0.0	 0.0	 0.0	 0.0	 0.0;
	295	 5.0	 3.75	 3.75	 0.0	 1.09445	 5.0	 1	 5.0	 1.0	 0.0	 0.0	 0.0	 0.0	 0.0	 0.0	 0.0	 0.0	 0.0	 0.0	 0.0;
	310	 370.0	 190.0	 190.0	 -19.0	 1.0	 426.0	 1	 370.0	 240.0	 0.0	 0.0	 0.0	 0.0	 0.0	 0.0	 0.0	 0.0	 0.0	 0.0	 0.0;
	316	 0.0	 0.0	 2.0	 0.0	 1.0	 4.0	 0	 5.73	 1.0	 0.0	 0.0	 0.0	 0.0	 0.0	 0.0	 0.0	 0.0	 0.0	 0.0	 0.0;
	316	 0.0	 0.0	 2.0	 0.0	 1.0	 4.0	 0	 5.73	 1.0	 0.0	 0.0	 0.0	 0.0	 0.0	 0.0	 0.0	 0.0	 0.0	 0.0	 0.0;
	376	 6.6	 5.0	 5.0	 0.0	 1.10193	 8.4	 1	 6.6	 5.4	 0.0	 0.0	 0.0	 0.0	 0.0	 0.0	 0.0	 0.0	 0.0	 0.0	 0.0;
	379	 0.9	 1.0	 1.0	 0.0	 1.11132	 0.9	 1	 0.9	 0.3	 0.0	 0.0	 0.0	 0.0	 0.0	 0.0	 0.0	 0.0	 0.0	 0.0	 0.0;
	379	 0.9	 1.0	 1.0	 0.0	 1.11132	 0.9	 1	 0.9	 0.3	 0.0	 0.0	 0.0	 0.0	 0.0	 0.0	 0.0	 0.0	 0.0	 0.0	 0.0;
	379	 0.9	 1.0	 1.0	 0.0	 1.11132	 0.9	 1	 0.9	 0.3	 0.0	 0.0	 0.0	 0.0	 0.0	 0.0	 0.0	 0.0	 0.0	 0.0	 0.0;
	383	 27.0	 7.0	 7.0	 0.0	 1.11054	 31.3	 1	 27.0	 11.0	 0.0	 0.0	 0.0	 0.0	 0.0	 0.0	 0.0	 0.0	 0.0	 0.0	 0.0;
	383	 30.0	 7.0	 7.0	 0.0	 1.11054	 39.0	 1	 30.0	 11.0	 0.0	 0.0	 0.0	 0.0	 0.0	 0.0	 0.0	 0.0	 0.0	 0.0	 0.0;
	383	 30.0	 6.0	 6.0	 0.0	 1.11054	 40.6	 1	 30.0	 9.0	 0.0	 0.0	 0.0	 0.0	 0.0	 0.0	 0.0	 0.0	 0.0	 0.0	 0.0;
	384	 55.0	 15.0	 15.0	 0.0	 1.11743	 68.8	 1	 55.0	 20.0	 0.0	 0.0	 0.0	 0.0	 0.0	 0.0	 0.0	 0.0	 0.0	 0.0	 0.0;
	384	 55.0	 15.0	 15.0	 0.0	 1.11743	 68.8	 1	 55.0	 20.0	 0.0	 0.0	 0.0	 0.0	 0.0	 0.0	 0.0	 0.0	 0.0	 0.0	 0.0;
	385	 40.0	 6.11	 15.0	 0.0	 1.11752	 48.5	 1	 40.0	 10.0	 0.0	 0.0	 0.0	 0.0	 0.0	 0.0	 0.0	 0.0	 0.0	 0.0	 0.0;
	385	 55.0	 6.11	 15.0	 0.0	 1.11752	 68.8	 1	 55.0	 20.0	 0.0	 0.0	 0.0	 0.0	 0.0	 0.0	 0.0	 0.0	 0.0	 0.0	 0.0;
	387	 50.0	 20.0	 20.0	 0.0	 1.1113	 68.8	 1	 50.0	 25.0	 0.0	 0.0	 0.0	 0.0	 0.0	 0.0	 0.0	 0.0	 0.0	 0.0	 0.0;
	387	 100.0	 20.0	 20.0	 0.0	 1.1113	 147.0	 1	 100.0	 55.0	 0.0	 0.0	 0.0	 0.0	 0.0	 0.0	 0.0	 0.0	 0.0	 0.0	 0.0;
	388	 60.0	 40.0	 40.0	 0.0	 1.11386	 68.8	 1	 60.0	 25.0	 0.0	 0.0	 0.0	 0.0	 0.0	 0.0	 0.0	 0.0	 0.0	 0.0	 0.0;
	399	 2.75	 3.0	 3.0	 0.0	 1.10799	 3.8	 1	 2.75	 2.0	 0.0	 0.0	 0.0	 0.0	 0.0	 0.0	 0.0	 0.0	 0.0	 0.0	 0.0;
	433	 1.65	 1.0	 1.0	 0.0	 1.09946	 1.9	 1	 1.65	 1.35	 0.0	 0.0	 0.0	 0.0	 0.0	 0.0	 0.0	 0.0	 0.0	 0.0	 0.0;
	455	 51.5	 8.22	 57.0	 -22.0	 1.11245	 68.8	 1	 51.5	 15.0	 0.0	 0.0	 0.0	 0.0	 0.0	 0.0	 0.0	 0.0	 0.0	 0.0	 0.0;
	456	 55.0	 8.37	 57.0	 -22.0	 1.11895	 68.8	 1	 55.0	 15.0	 0.0	 0.0	 0.0	 0.0	 0.0	 0.0	 0.0	 0.0	 0.0	 0.0	 0.0;
	457	 55.0	 14.8	 57.0	 -22.0	 1.11707	 68.8	 1	 55.0	 15.0	 0.0	 0.0	 0.0	 0.0	 0.0	 0.0	 0.0	 0.0	 0.0	 0.0	 0.0;
	457	 77.0	 17.33	 71.0	 -28.0	 1.11707	 87.5	 1	 77.0	 3.0	 0.0	 0.0	 0.0	 0.0	 0.0	 0.0	 0.0	 0.0	 0.0	 0.0	 0.0;
	458	 55.0	 8.56	 57.0	 -22.0	 1.11493	 68.8	 1	 55.0	 15.0	 0.0	 0.0	 0.0	 0.0	 0.0	 0.0	 0.0	 0.0	 0.0	 0.0	 0.0;
	458	 55.0	 8.56	 57.0	 -22.0	 1.11493	 68.8	 1	 55.0	 15.0	 0.0	 0.0	 0.0	 0.0	 0.0	 0.0	 0.0	 0.0	 0.0	 0.0	 0.0;
	478	 120.0	 73.47	 137.0	 -47.0	 1.11867	 235.3	 1	 226.0	 120.0	 0.0	 0.0	 0.0	 0.0	 0.0	 0.0	 0.0	 0.0	 0.0	 0.0	 0.0;
	478	 12.0	 6.16	 12.0	 0.0	 1.11867	 48.5	 1	 25.0	 12.0	 0.0	 0.0	 0.0	 0.0	 0.0	 0.0	 0.0	 0.0	 0.0	 0.0	 0.0;
	479	 10.0	 12.0	 12.0	 0.0	 1.10485	 48.5	 1	 17.0	 10.0	 0.0	 0.0	 0.0	 0.0	 0.0	 0.0	 0.0	 0.0	 0.0	 0.0	 0.0;
	482	 4.4	 2.0	 2.0	 0.0	 1.10618	 5.6	 1	 4.4	 3.6	 0.0	 0.0	 0.0	 0.0	 0.0	 0.0	 0.0	 0.0	 0.0	 0.0	 0.0;
	500	 0.34	 0.2	 0.2	 0.0	 1.09306	 0.4	 1	 0.34	 0.0	 0.0	 0.0	 0.0	 0.0	 0.0	 0.0	 0.0	 0.0	 0.0	 0.0	 0.0;
	522	 6.6	 4.0	 4.0	 0.0	 1.10119	 8.4	 1	 6.6	 3.0	 0.0	 0.0	 0.0	 0.0	 0.0	 0.0	 0.0	 0.0	 0.0	 0.0	 0.0;
	527	 3.41	 3.0	 3.0	 0.0	 1.11076	 4.6	 1	 3.41	 2.79	 0.0	 0.0	 0.0	 0.0	 0.0	 0.0	 0.0	 0.0	 0.0	 0.0	 0.0;
	532	 6.5	 4.59	 4.7	 3.8	 1.10157	 6.5	 1	 6.5	 1.0	 0.0	 0.0	 0.0	 0.0	 0.0	 0.0	 0.0	 0.0	 0.0	 0.0	 0.0;
	532	 6.5	 4.59	 4.7	 3.8	 1.10157	 6.5	 1	 6.5	 1.0	 0.0	 0.0	 0.0	 0.0	 0.0	 0.0	 0.0	 0.0	 0.0	 0.0	 0.0;
	532	 6.5	 4.59	 4.7	 3.8	 1.10157	 6.5	 1	 6.5	 1.0	 0.0	 0.0	 0.0	 0.0	 0.0	 0.0	 0.0	 0.0	 0.0	 0.0	 0.0;
	543	 2.97	 2.0	 2.0	 0.0	 1.06077	 4.1	 1	 2.97	 2.43	 0.0	 0.0	 0.0	 0.0	 0.0	 0.0	 0.0	 0.0	 0.0	 0.0	 0.0;
	572	 0.0	 0.0	 2.0	 0.0	 1.0	 4.6	 0	 3.52	 2.88	 0.0	 0.0	 0.0	 0.0	 0.0	 0.0	 0.0	 0.0	 0.0	 0.0	 0.0;
	597	 1.7	 0.7	 0.7	 0.0	 1.08723	 1.9	 1	 1.7	 1.0	 0.0	 0.0	 0.0	 0.0	 0.0	 0.0	 0.0	 0.0	 0.0	 0.0	 0.0;
	597	 0.0	 0.0	 0.7	 0.0	 1.0	 1.9	 0	 1.7	 1.0	 0.0	 0.0	 0.0	 0.0	 0.0	 0.0	 0.0	 0.0	 0.0	 0.0	 0.0;
	603	 4.4	 3.0	 3.0	 0.0	 1.11189	 5.6	 1	 4.4	 3.0	 0.0	 0.0	 0.0	 0.0	 0.0	 0.0	 0.0	 0.0	 0.0	 0.0	 0.0;
	670	 52.0	 16.51	 35.0	 2.0	 1.11956	 62.5	 1	 52.0	 37.0	 0.0	 0.0	 0.0	 0.0	 0.0	 0.0	 0.0	 0.0	 0.0	 0.0	 0.0;
	670	 30.0	 11.7	 23.0	 2.0	 1.11956	 37.5	 1	 30.0	 10.0	 0.0	 0.0	 0.0	 0.0	 0.0	 0.0	 0.0	 0.0	 0.0	 0.0	 0.0;
	670	 105.0	 34.77	 85.0	 6.0	 1.11956	 150.0	 1	 105.0	 50.0	 0.0	 0.0	 0.0	 0.0	 0.0	 0.0	 0.0	 0.0	 0.0	 0.0	 0.0;
	670	 105.0	 34.77	 85.0	 6.0	 1.11956	 150.0	 1	 105.0	 50.0	 0.0	 0.0	 0.0	 0.0	 0.0	 0.0	 0.0	 0.0	 0.0	 0.0	 0.0;
	671	 30.0	 11.81	 23.0	 2.0	 1.12	 37.5	 1	 30.0	 10.0	 0.0	 0.0	 0.0	 0.0	 0.0	 0.0	 0.0	 0.0	 0.0	 0.0	 0.0;
	671	 30.0	 11.81	 23.0	 2.0	 1.12	 37.5	 1	 30.0	 10.0	 0.0	 0.0	 0.0	 0.0	 0.0	 0.0	 0.0	 0.0	 0.0	 0.0	 0.0;
	671	 30.0	 12.67	 25.0	 2.0	 1.12	 37.5	 1	 30.0	 10.0	 0.0	 0.0	 0.0	 0.0	 0.0	 0.0	 0.0	 0.0	 0.0	 0.0	 0.0;
	671	 125.0	 35.77	 85.0	 6.0	 1.12	 150.0	 1	 125.0	 68.0	 0.0	 0.0	 0.0	 0.0	 0.0	 0.0	 0.0	 0.0	 0.0	 0.0	 0.0;
	671	 105.0	 35.77	 85.0	 6.0	 1.12	 150.0	 1	 105.0	 50.0	 0.0	 0.0	 0.0	 0.0	 0.0	 0.0	 0.0	 0.0	 0.0	 0.0	 0.0;
	692	 1.54	 0.7	 0.7	 0.0	 1.09872	 1.9	 1	 1.54	 1.26	 0.0	 0.0	 0.0	 0.0	 0.0	 0.0	 0.0	 0.0	 0.0	 0.0	 0.0;
	694	 1.4	 1.0	 1.0	 0.0	 1.08197	 3.8	 1	 1.4	 0.0	 0.0	 0.0	 0.0	 0.0	 0.0	 0.0	 0.0	 0.0	 0.0	 0.0	 0.0;
	700	 35.0	 18.0	 18.0	 2.0	 1.11463	 37.5	 1	 35.0	 9.0	 0.0	 0.0	 0.0	 0.0	 0.0	 0.0	 0.0	 0.0	 0.0	 0.0	 0.0;
	700	 20.0	 30.0	 30.0	 2.0	 1.11463	 37.5	 1	 20.0	 9.0	 0.0	 0.0	 0.0	 0.0	 0.0	 0.0	 0.0	 0.0	 0.0	 0.0	 0.0;
	701	 35.0	 18.0	 18.0	 2.0	 1.11138	 37.5	 1	 35.0	 9.0	 0.0	 0.0	 0.0	 0.0	 0.0	 0.0	 0.0	 0.0	 0.0	 0.0	 0.0;
	701	 35.0	 18.0	 18.0	 2.0	 1.11138	 37.5	 1	 35.0	 9.0	 0.0	 0.0	 0.0	 0.0	 0.0	 0.0	 0.0	 0.0	 0.0	 0.0	 0.0;
	701	 35.0	 18.0	 18.0	 2.0	 1.11138	 37.5	 1	 35.0	 9.0	 0.0	 0.0	 0.0	 0.0	 0.0	 0.0	 0.0	 0.0	 0.0	 0.0	 0.0;
	701	 97.0	 65.0	 65.0	 6.0	 1.11138	 121.3	 1	 97.0	 30.0	 0.0	 0.0	 0.0	 0.0	 0.0	 0.0	 0.0	 0.0	 0.0	 0.0	 0.0;
	702	 35.0	 18.0	 18.0	 2.0	 1.11468	 37.5	 1	 35.0	 9.0	 0.0	 0.0	 0.0	 0.0	 0.0	 0.0	 0.0	 0.0	 0.0	 0.0	 0.0;
	702	 30.0	 18.0	 18.0	 2.0	 1.11468	 37.5	 1	 30.0	 9.0	 0.0	 0.0	 0.0	 0.0	 0.0	 0.0	 0.0	 0.0	 0.0	 0.0	 0.0;
	702	 28.0	 14.0	 14.0	 2.0	 1.11468	 31.5	 1	 28.0	 9.0	 0.0	 0.0	 0.0	 0.0	 0.0	 0.0	 0.0	 0.0	 0.0	 0.0	 0.0;
	735	 8.0	 4.0	 4.0	 0.0	 1.0952	 5.3	 1	 8.0	 1.0	 0.0	 0.0	 0.0	 0.0	 0.0	 0.0	 0.0	 0.0	 0.0	 0.0	 0.0;
	735	 2.0	 2.0	 2.0	 0.0	 1.0952	 2.0	 1	 2.0	 1.0	 0.0	 0.0	 0.0	 0.0	 0.0	 0.0	 0.0	 0.0	 0.0	 0.0	 0.0;
	752	 4.4	 0.2	 4.5	 0.2	 1.09731	 5.8	 1	 4.4	 3.6	 0.0	 0.0	 0.0	 0.0	 0.0	 0.0	 0.0	 0.0	 0.0	 0.0	 0.0;
	766	 2.7	 0.0	 0.0	 0.0	 1.09745	 5.8	 1	 2.7	 0.0	 0.0	 0.0	 0.0	 0.0	 0.0	 0.0	 0.0	 0.0	 0.0	 0.0	 0.0;
	775	 4.9	 0.0	 0.0	 0.0	 1.09432	 4.0	 1	 4.9	 0.0	 0.0	 0.0	 0.0	 0.0	 0.0	 0.0	 0.0	 0.0	 0.0	 0.0	 0.0;
	798	 93.0	 14.74	 30.0	 0.0	 1.11549	 65.0	 1	 93.0	 0.0	 0.0	 0.0	 0.0	 0.0	 0.0	 0.0	 0.0	 0.0	 0.0	 0.0	 0.0;
	798	 35.9	 14.74	 30.0	 0.0	 1.11549	 65.0	 1	 35.9	 0.0	 0.0	 0.0	 0.0	 0.0	 0.0	 0.0	 0.0	 0.0	 0.0	 0.0	 0.0;
	801	 0.0	 0.0	 0.0	 0.0	 1.0	 12.4	 0	 2.5	 0.0	 0.0	 0.0	 0.0	 0.0	 0.0	 0.0	 0.0	 0.0	 0.0	 0.0	 0.0;
	808	 6.0	 0.0	 0.0	 0.0	 1.09831	 4.7	 1	 6.0	 0.0	 0.0	 0.0	 0.0	 0.0	 0.0	 0.0	 0.0	 0.0	 0.0	 0.0	 0.0;
	809	 6.0	 0.0	 0.0	 0.0	 1.09858	 5.8	 1	 6.0	 0.0	 0.0	 0.0	 0.0	 0.0	 0.0	 0.0	 0.0	 0.0	 0.0	 0.0	 0.0;
	846	 130.0	 37.67	 149.0	 -33.0	 1.12	 235.0	 1	 225.0	 130.0	 0.0	 0.0	 0.0	 0.0	 0.0	 0.0	 0.0	 0.0	 0.0	 0.0	 0.0;
	847	 180.38	 76.49	 149.0	 -33.0	 1.12	 235.0	 1	 225.0	 110.0	 0.0	 0.0	 0.0	 0.0	 0.0	 0.0	 0.0	 0.0	 0.0	 0.0	 0.0;
	854	 2.5	 0.0	 0.0	 0.0	 1.07804	 3.0	 1	 2.5	 0.0	 0.0	 0.0	 0.0	 0.0	 0.0	 0.0	 0.0	 0.0	 0.0	 0.0	 0.0;
	860	 12.0	 0.0	 0.0	 0.0	 1.09667	 12.4	 1	 12.0	 0.0	 0.0	 0.0	 0.0	 0.0	 0.0	 0.0	 0.0	 0.0	 0.0	 0.0	 0.0;
	870	 170.0	 30.0	 30.0	 0.0	 1.11642	 167.6	 1	 170.0	 66.0	 0.0	 0.0	 0.0	 0.0	 0.0	 0.0	 0.0	 0.0	 0.0	 0.0	 0.0;
	870	 61.0	 30.0	 30.0	 0.0	 1.11642	 71.6	 1	 61.0	 34.0	 0.0	 0.0	 0.0	 0.0	 0.0	 0.0	 0.0	 0.0	 0.0	 0.0	 0.0;
	876	 21.0	 0.0	 0.0	 0.0	 1.10874	 8.3	 1	 21.0	 0.0	 0.0	 0.0	 0.0	 0.0	 0.0	 0.0	 0.0	 0.0	 0.0	 0.0	 0.0;
	890	 7.0	 0.0	 0.0	 0.0	 1.1085	 5.6	 1	 7.0	 0.0	 0.0	 0.0	 0.0	 0.0	 0.0	 0.0	 0.0	 0.0	 0.0	 0.0	 0.0;
	893	 0.0	 0.0	 0.0	 0.0	 1.0	 3.0	 0	 10.0	 0.0	 0.0	 0.0	 0.0	 0.0	 0.0	 0.0	 0.0	 0.0	 0.0	 0.0	 0.0;
	908	 30.4	 0.0	 0.0	 0.0	 1.10489	 3.0	 1	 30.4	 0.0	 0.0	 0.0	 0.0	 0.0	 0.0	 0.0	 0.0	 0.0	 0.0	 0.0	 0.0;
	913	 2.0	 0.0	 0.0	 0.0	 1.06654	 0.0	 1	 2.0	 0.0	 0.0	 0.0	 0.0	 0.0	 0.0	 0.0	 0.0	 0.0	 0.0	 0.0	 0.0;
	918	 0.0	 0.0	 0.0	 0.0	 1.0	 1.0	 0	 1.9	 0.0	 0.0	 0.0	 0.0	 0.0	 0.0	 0.0	 0.0	 0.0	 0.0	 0.0	 0.0;
	929	 0.0	 0.0	 0.0	 0.0	 1.0	 2.1	 0	 2.02	 1.34	 0.0	 0.0	 0.0	 0.0	 0.0	 0.0	 0.0	 0.0	 0.0	 0.0	 0.0;
	934	 129.0	 28.69	 105.0	 -11.0	 1.11698	 235.0	 1	 225.0	 129.0	 0.0	 0.0	 0.0	 0.0	 0.0	 0.0	 0.0	 0.0	 0.0	 0.0	 0.0;
	936	 36.0	 15.64	 30.0	 0.0	 1.09445	 36.8	 1	 36.0	 0.0	 0.0	 0.0	 0.0	 0.0	 0.0	 0.0	 0.0	 0.0	 0.0	 0.0	 0.0;
	939	 0.0	 0.0	 0.0	 0.0	 1.0	 2.8	 0	 2.68	 1.78	 0.0	 0.0	 0.0	 0.0	 0.0	 0.0	 0.0	 0.0	 0.0	 0.0	 0.0;
	959	 101.0	 25.6	 30.0	 0.0	 1.10735	 100.8	 1	 101.0	 49.0	 0.0	 0.0	 0.0	 0.0	 0.0	 0.0	 0.0	 0.0	 0.0	 0.0	 0.0;
	965	 0.0	 0.0	 0.0	 0.0	 1.0	 1.7	 0	 12.0	 0.0	 0.0	 0.0	 0.0	 0.0	 0.0	 0.0	 0.0	 0.0	 0.0	 0.0	 0.0;
	980	 12.0	 19.57	 30.0	 0.0	 1.09905	 9.5	 1	 12.0	 0.0	 0.0	 0.0	 0.0	 0.0	 0.0	 0.0	 0.0	 0.0	 0.0	 0.0	 0.0;
	982	 0.0	 0.0	 0.0	 0.0	 1.0	 1.6	 0	 1.6	 0.91	 0.0	 0.0	 0.0	 0.0	 0.0	 0.0	 0.0	 0.0	 0.0	 0.0	 0.0;
	984	 6.0	 0.0	 0.0	 0.0	 1.1072	 5.9	 1	 6.0	 1.0	 0.0	 0.0	 0.0	 0.0	 0.0	 0.0	 0.0	 0.0	 0.0	 0.0	 0.0;
	989	 8.3	 0.0	 0.0	 0.0	 1.09313	 10.9	 1	 8.3	 0.0	 0.0	 0.0	 0.0	 0.0	 0.0	 0.0	 0.0	 0.0	 0.0	 0.0	 0.0;
	993	 68.0	 9.63	 23.0	 0.0	 1.10184	 52.0	 1	 68.0	 5.0	 0.0	 0.0	 0.0	 0.0	 0.0	 0.0	 0.0	 0.0	 0.0	 0.0	 0.0;
	993	 0.0	 0.0	 23.0	 0.0	 1.0	 52.0	 0	 68.0	 5.0	 0.0	 0.0	 0.0	 0.0	 0.0	 0.0	 0.0	 0.0	 0.0	 0.0	 0.0;
	993	 0.0	 0.0	 11.0	 0.0	 1.0	 24.5	 0	 31.0	 -32.0	 0.0	 0.0	 0.0	 0.0	 0.0	 0.0	 0.0	 0.0	 0.0	 0.0	 0.0;
	993	 0.0	 0.0	 10.0	 0.0	 1.0	 24.5	 0	 31.0	 -32.0	 0.0	 0.0	 0.0	 0.0	 0.0	 0.0	 0.0	 0.0	 0.0	 0.0	 0.0;
	1008	 0.0	 0.0	 10.0	 0.0	 1.0	 69.0	 0	 50.0	 0.0	 0.0	 0.0	 0.0	 0.0	 0.0	 0.0	 0.0	 0.0	 0.0	 0.0	 0.0;
	1008	 92.0	 40.93	 74.0	 -15.0	 1.11496	 57.6	 1	 125.0	 92.0	 0.0	 0.0	 0.0	 0.0	 0.0	 0.0	 0.0	 0.0	 0.0	 0.0	 0.0;
	1009	 84.0	 54.39	 74.0	 -15.0	 1.10191	 57.6	 1	 125.0	 84.0	 0.0	 0.0	 0.0	 0.0	 0.0	 0.0	 0.0	 0.0	 0.0	 0.0	 0.0;
	1009	 0.0	 0.0	 10.0	 0.0	 1.0	 40.0	 0	 30.0	 0.0	 0.0	 0.0	 0.0	 0.0	 0.0	 0.0	 0.0	 0.0	 0.0	 0.0	 0.0;
	1021	 2.5	 0.0	 0.0	 0.0	 1.10219	 3.3	 1	 2.5	 0.0	 0.0	 0.0	 0.0	 0.0	 0.0	 0.0	 0.0	 0.0	 0.0	 0.0	 0.0;
	1049	 3.35	 0.0	 0.0	 0.0	 1.08347	 3.8	 1	 3.35	 2.23	 0.0	 0.0	 0.0	 0.0	 0.0	 0.0	 0.0	 0.0	 0.0	 0.0	 0.0;
...
];

%% generator cost data
%	2	startup	shutdown	n	c(n-1)	...	c0
mpc.gencost = [
	2	 0.0	 0.0	 3	   0.000000	 158.610000	   0.000000;
	2	 0.0	 0.0	 3	   0.000000	 158.610000	   0.000000;
	2	 0.0	 0.0	 3	   0.000000	 107.030000	   0.000000;
	2	 0.0	 0.0	 3	   0.000000	 107.030000	   0.000000;
	2	 0.0	 0.0	 3	   0.000000	 107.030000	   0.000000;
	2	 0.0	 0.0	 3	   0.000000	 107.030000	   0.000000;
	2	 0.0	 0.0	 3	   0.000000	 107.030000	   0.000000;
	2	 0.0	 0.0	 3	   0.000000	 107.030000	   0.000000;
	2	 0.0	 0.0	 3	   0.000000	 107.030000	   0.000000;
	2	 0.0	 0.0	 3	   0.000000	 107.030000	   0.000000;
	2	 0.0	 0.0	 3	   0.000000	 107.030000	   0.000000;
	2	 0.0	 0.0	 3	   0.000000	 107.030000	   0.000000;
	2	 0.0	 0.0	 3	   0.000000	 107.030000	   0.000000;
	2	 0.0	 0.0	 3	   0.000000	 143.520000	   0.000000;
	2	 0.0	 0.0	 3	   0.000000	 143.520000	   0.000000;
	2	 0.0	 0.0	 3	   0.000000	 143.520000	   0.000000;
	2	 0.0	 0.0	 3	   0.000000	 143.520000	   0.000000;
	2	 0.0	 0.0	 3	   0.000000	 143.520000	   0.000000;
	2	 0.0	 0.0	 3	   0.000000	 143.520000	   0.000000;
	2	 0.0	 0.0	 3	   0.000000	 143.520000	   0.000000;
	2	 0.0	 0.0	 3	   0.000000	 143.520000	   0.000000;
	2	 0.0	 0.0	 3	   0.000000	 148.160000	   0.000000;
	2	 0.0	 0.0	 3	   0.000000	 148.160000	   0.000000;
	2	 0.0	 0.0	 3	   0.000000	 148.160000	   0.000000;
	2	 0.0	 0.0	 3	   0.000000	 148.160000	   0.000000;
	2	 0.0	 0.0	 3	   0.000000	 148.160000	   0.000000;
	2	 0.0	 0.0	 3	   0.000000	 148.160000	   0.000000;
	2	 0.0	 0.0	 3	   0.000000	 148.160000	   0.000000;
	2	 0.0	 0.0	 3	   0.000000	   0.000000	   0.000000;
	2	 0.0	 0.0	 3	   0.000000	 134.040000	   0.000000;
	2	 0.0	 0.0	 3	   0.000000	 134.040000	   0.000000;
	2	 0.0	 0.0	 3	   0.000000	 134.040000	   0.000000;
	2	 0.0	 0.0	 3	   0.000000	 134.040000	   0.000000;
	2	 0.0	 0.0	 3	   0.000000	 134.040000	   0.000000;
	2	 0.0	 0.0	 3	   0.000000	 126.620000	   0.000000;
	2	 0.0	 0.0	 3	   0.000000	 126.620000	   0.000000;
	2	 0.0	 0.0	 3	   0.000000	   0.000000	   0.000000;
	2	 0.0	 0.0	 3	   0.000000	   0.000000	   0.000000;
	2	 0.0	 0.0	 3	   0.000000	 130.490000	   0.000000;
	2	 0.0	 0.0	 3	   0.000000	 130.490000	   0.000000;
	2	 0.0	 0.0	 3	   0.000000	 132.330000	   0.000000;
	2	 0.0	 0.0	 3	   0.000000	 132.330000	   0.000000;
	2	 0.0	 0.0	 3	   0.000000	 136.590000	   0.000000;
	2	 0.0	 0.0	 3	   0.000000	 136.590000	   0.000000;
	2	 0.0	 0.0	 3	   0.000000	 139.960000	   0.000000;
	2	 0.0	 0.0	 3	   0.000000	 128.210000	   0.000000;
	2	 0.0	 0.0	 3	   0.000000	 128.210000	   0.000000;
	2	 0.0	 0.0	 3	   0.000000	 128.210000	   0.000000;
	2	 0.0	 0.0	 3	   0.000000	 128.210000	   0.000000;
	2	 0.0	 0.0	 3	   0.000000	 128.210000	   0.000000;
	2	 0.0	 0.0	 3	   0.000000	 137.400000	   0.000000;
	2	 0.0	 0.0	 3	   0.000000	 137.400000	   0.000000;
	2	 0.0	 0.0	 3	   0.000000	 137.400000	   0.000000;
	2	 0.0	 0.0	 3	   0.000000	 137.400000	   0.000000;
	2	 0.0	 0.0	 3	   0.000000	 129.990000	   0.000000;
	2	 0.0	 0.0	 3	   0.000000	 129.990000	   0.000000;
	2	 0.0	 0.0	 3	   0.000000	 129.990000	   0.000000;
	2	 0.0	 0.0	 3	   0.000000	 135.600000	   0.000000;
	2	 0.0	 0.0	 3	   0.000000	 135.600000	   0.000000;
	2	 0.0	 0.0	 3	   0.000000	 135.600000	   0.000000;
	2	 0.0	 0.0	 3	   0.000000	 163.160000	   0.000000;
	2	 0.0	 0.0	 3	   0.000000	 163.160000	   0.000000;
	2	 0.0	 0.0	 3	   0.000000	 163.160000	   0.000000;
	2	 0.0	 0.0	 3	   0.000000	 163.160000	   0.000000;
	2	 0.0	 0.0	 3	   0.000000	 163.160000	   0.000000;
	2	 0.0	 0.0	 3	   0.000000	 163.160000	   0.000000;
	2	 0.0	 0.0	 3	   0.000000	 163.160000	   0.000000;
	2	 0.0	 0.0	 3	   0.000000	 139.010000	   0.000000;
	2	 0.0	 0.0	 3	   0.000000	 139.010000	   0.000000;
	2	 0.0	 0.0	 3	   0.000000	 139.010000	   0.000000;
	2	 0.0	 0.0	 3	   0.000000	 139.010000	   0.000000;
	2	 0.0	 0.0	 3	   0.000000	 139.010000	   0.000000;
	2	 0.0	 0.0	 3	   0.000000	 139.010000	   0.000000;
	2	 0.0	 0.0	 3	   0.000000	 139.010000	   0.000000;
	2	 0.0	 0.0	 3	   0.000000	 139.010000	   0.000000;
	2	 0.0	 0.0	 3	   0.000000	 125.480000	   0.000000;
	2	 0.0	 0.0	 3	   0.000000	 125.480000	   0.000000;
	2	 0.0	 0.0	 3	   0.000000	 125.480000	   0.000000;
	2	 0.0	 0.0	 3	   0.000000	 125.480000	   0.000000;
	2	 0.0	 0.0	 3	   0.000000	 125.480000	   0.000000;
	2	 0.0	 0.0	 3	   0.000000	 137.400000	   0.000000;
	2	 0.0	 0.0	 3	   0.000000	 137.400000	   0.000000;
	2	 0.0	 0.0	 3	   0.000000	 137.400000	   0.000000;
	2	 0.0	 0.0	 3	   0.000000	 137.400000	   0.000000;
	2	 0.0	 0.0	 3	   0.000000	 137.400000	   0.000000;
	2	 0.0	 0.0	 3	   0.000000	   0.000000	   0.000000;
	2	 0.0	 0.0	 3	   0.000000	   0.000000	   0.000000;
	2	 0.0	 0.0	 3	   0.000000	   0.000000	   0.000000;
	2	 0.0	 0.0	 3	   0.000000	   0.000000	   0.000000;
	2	 0.0	 0.0	 3	   0.000000	   0.000000	   0.000000;
	2	 0.0	 0.0	 3	   0.000000	   0.000000	   0.000000;
	2	 0.0	 0.0	 3	   0.000000	   0.000000	   0.000000;
	2	 0.0	 0.0	 3	   0.000000	   0.000000	   0.000000;
	2	 0.0	 0.0	 3	   0.000000	   0.000000	   0.000000;
	2	 0.0	 0.0	 3	   0.000000	   0.000000	   0.000000;
	2	 0.0	 0.0	 3	   0.000000	   0.000000	   0.000000;
	2	 0.0	 0.0	 3	   0.000000	   0.000000	   0.000000;
	2	 0.0	 0.0	 3	   0.000000	   0.000000	   0.000000;
	2	 0.0	 0.0	 3	   0.000000	 107.030000	   0.000000;
	2	 0.0	 0.0	 3	   0.000000	   0.000000	   0.000000;
	2	 0.0	 0.0	 3	   0.000000	   0.000000	   0.000000;
	2	 0.0	 0.0	 3	   0.000000	   0.000000	   0.000000;
	2	 0.0	 0.0	 3	   0.000000	   0.000000	   0.000000;
	2	 0.0	 0.0	 3	   0.000000	   0.000000	   0.000000;
	2	 0.0	 0.0	 3	   0.000000	   0.000000	   0.000000;
	2	 0.0	 0.0	 3	   0.000000	   0.000000	   0.000000;
	2	 0.0	 0.0	 3	   0.000000	   0.000000	   0.000000;
	2	 0.0	 0.0	 3	   0.000000	   0.000000	   0.000000;
	2	 0.0	 0.0	 3	   0.000000	   0.000000	   0.000000;
	2	 0.0	 0.0	 3	   0.000000	   0.000000	   0.000000;
	2	 0.0	 0.0	 3	   0.000000	   0.000000	   0.000000;
	2	 0.0	 0.0	 3	   0.000000	   0.000000	   0.000000;
	2	 0.0	 0.0	 3	   0.000000	   0.000000	   0.000000;
	2	 0.0	 0.0	 3	   0.000000	   0.000000	   0.000000;
	2	 0.0	 0.0	 3	   0.000000	   0.000000	   0.000000;
	2	 0.0	 0.0	 3	   0.000000	   0.000000	   0.000000;
	2	 0.0	 0.0	 3	   0.000000	   0.000000	   0.000000;
	2	 0.0	 0.0	 3	   0.000000	   0.000000	   0.000000;
	2	 0.0	 0.0	 3	   0.000000	   0.000000	   0.000000;
	2	 0.0	 0.0	 3	   0.000000	   0.000000	   0.000000;
	2	 0.0	 0.0	 3	   0.000000	   0.000000	   0.000000;
	2	 0.0	 0.0	 3	   0.000000	   0.000000	   0.000000;
	2	 0.0	 0.0	 3	   0.000000	   0.000000	   0.000000;
	2	 0.0	 0.0	 3	   0.000000	 158.610000	   0.000000;
	2	 0.0	 0.0	 3	   0.000000	 158.610000	   0.000000;
	2	 0.0	 0.0	 3	   0.000000	 158.610000	   0.000000;
	2	 0.0	 0.0	 3	   0.000000	   0.000000	   0.000000;
	2	 0.0	 0.0	 3	   0.000000	   0.000000	   0.000000;
	2	 0.0	 0.0	 3	   0.000000	   0.000000	   0.000000;
	2	 0.0	 0.0	 3	   0.000000	   0.000000	   0.000000;
	2	 0.0	 0.0	 3	   0.000000	   0.000000	   0.000000;
	2	 0.0	 0.0	 3	   0.000000	   0.000000	   0.000000;
	2	 0.0	 0.0	 3	   0.000000	   0.000000	   0.000000;
	2	 0.0	 0.0	 3	   0.000000	   0.000000	   0.000000;
	2	 0.0	 0.0	 3	   0.000000	   0.000000	   0.000000;
	2	 0.0	 0.0	 3	   0.000000	   0.000000	   0.000000;
	2	 0.0	 0.0	 3	   0.000000	   0.000000	   0.000000;
	2	 0.0	 0.0	 3	   0.000000	   0.000000	   0.000000;
	2	 0.0	 0.0	 3	   0.000000	   0.000000	   0.000000;
	2	 0.0	 0.0	 3	   0.000000	   0.000000	   0.000000;
	2	 0.0	 0.0	 3	   0.000000	   0.000000	   0.000000;
	2	 0.0	 0.0	 3	   0.000000	   0.000000	   0.000000;
	2	 0.0	 0.0	 3	   0.000000	   0.000000	   0.000000;
	2	 0.0	 0.0	 3	   0.000000	   0.000000	   0.000000;
	2	 0.0	 0.0	 3	   0.000000	   0.000000	   0.000000;
	2	 0.0	 0.0	 3	   0.000000	   0.000000	   0.000000;
	2	 0.0	 0.0	 3	   0.000000	   0.000000	   0.000000;
	2	 0.0	 0.0	 3	   0.000000	   0.000000	   0.000000;
	2	 0.0	 0.0	 3	   0.000000	   0.000000	   0.000000;
	2	 0.0	 0.0	 3	   0.000000	   0.000000	   0.000000;
	2	 0.0	 0.0	 3	   0.000000	   0.000000	   0.000000;
	2	 0.0	 0.0	 3	   0.000000	   0.000000	   0.000000;
	2	 0.0	 0.0	 3	   0.000000	   0.000000	   0.000000;
	2	 0.0	 0.0	 3	   0.000000	   0.000000	   0.000000;
	2	 0.0	 0.0	 3	   0.000000	   0.000000	   0.000000;
	2	 0.0	 0.0	 3	   0.000000	   0.000000	   0.000000;
	2	 0.0	 0.0	 3	   0.000000	   0.000000	   0.000000;
	2	 0.0	 0.0	 3	   0.000000	   0.000000	   0.000000;
	2	 0.0	 0.0	 3	   0.000000	   0.000000	   0.000000;
	2	 0.0	 0.0	 3	   0.000000	   0.000000	   0.000000;
	2	 0.0	 0.0	 3	   0.000000	   0.000000	   0.000000;
	2	 0.0	 0.0	 3	   0.000000	   0.000000	   0.000000;
	2	 0.0	 0.0	 3	   0.000000	   0.000000	   0.000000;
	2	 0.0	 0.0	 3	   0.000000	   0.000000	   0.000000;
	2	 0.0	 0.0	 3	   0.000000	   0.000000	   0.000000;
	2	 0.0	 0.0	 3	   0.000000	   0.000000	   0.000000;
	2	 0.0	 0.0	 3	   0.000000	   0.000000	   0.000000;
	2	 0.0	 0.0	 3	   0.000000	   0.000000	   0.000000;
	2	 0.0	 0.0	 3	   0.000000	 143.520000	   0.000000;
	2	 0.0	 0.0	 3	   0.000000	 143.520000	   0.000000;
	2	 0.0	 0.0	 3	   0.000000	   0.000000	   0.000000;
	2	 0.0	 0.0	 3	   0.000000	   0.000000	   0.000000;
	2	 0.0	 0.0	 3	   0.000000	   0.000000	   0.000000;
	2	 0.0	 0.0	 3	   0.000000	   0.000000	   0.000000;
	2	 0.0	 0.0	 3	   0.000000	   0.000000	   0.000000;
	2	 0.0	 0.0	 3	   0.000000	   0.000000	   0.000000;
	2	 0.0	 0.0	 3	   0.000000	   0.000000	   0.000000;
	2	 0.0	 0.0	 3	   0.000000	   0.000000	   0.000000;
	2	 0.0	 0.0	 3	   0.000000	   0.000000	   0.000000;
	2	 0.0	 0.0	 3	   0.000000	   0.000000	   0.000000;
	2	 0.0	 0.0	 3	   0.000000	   0.000000	   0.000000;
	2	 0.0	 0.0	 3	   0.000000	 148.160000	   0.000000;
	2	 0.0	 0.0	 3	   0.000000	   0.000000	   0.000000;
	2	 0.0	 0.0	 3	   0.000000	   0.000000	   0.000000;
	2	 0.0	 0.0	 3	   0.000000	   0.000000	   0.000000;
	2	 0.0	 0.0	 3	   0.000000	   0.000000	   0.000000;
	2	 0.0	 0.0	 3	   0.000000	   0.000000	   0.000000;
	2	 0.0	 0.0	 3	   0.000000	   0.000000	   0.000000;
	2	 0.0	 0.0	 3	   0.000000	   0.000000	   0.000000;
	2	 0.0	 0.0	 3	   0.000000	   0.000000	   0.000000;
	2	 0.0	 0.0	 3	   0.000000	   0.000000	   0.000000;
	2	 0.0	 0.0	 3	   0.000000	   0.000000	   0.000000;
	2	 0.0	 0.0	 3	   0.000000	   0.000000	   0.000000;
	2	 0.0	 0.0	 3	   0.000000	   0.000000	   0.000000;
	2	 0.0	 0.0	 3	   0.000000	 157.000000	   0.000000;
	2	 0.0	 0.0	 3	   0.000000	 157.000000	   0.000000;
	2	 0.0	 0.0	 3	   0.000000	 157.000000	   0.000000;
	2	 0.0	 0.0	 3	   0.000000	 157.000000	   0.000000;
	2	 0.0	 0.0	 3	   0.000000	   0.000000	   0.000000;
	2	 0.0	 0.0	 3	   0.000000	   0.000000	   0.000000;
...
];

%% branch data
%	fbus	tbus	r	x	b	rateA	rateB	rateC	ratio	angle	status	angmin	angmax
mpc.branch = [
	9	 11	 0.00064	 0.0305	 0.0	 400.0	 400.0	 400.0	 1.10224	 0.0	 1	 -30.0	 30.0;
	13	 12	 0.00069	 0.03946	 0.0	 250.0	 250.0	 250.0	 0.9999	 0.0	 1	 -30.0	 30.0;
	21	 19	 0.00088	 0.05709	 0.0	 330.0	 330.0	 330.0	 0.9999	 0.0	 1	 -30.0	 30.0;
	36	 35	 0.0007	 0.03652	 0.0	 250.0	 250.0	 250.0	 0.9999	 0.0	 1	 -30.0	 30.0;
	37	 40	 0.00036	 0.02519	 0.0	 500.0	 500.0	 500.0	 1.0686	 0.0	 1	 -30.0	 30.0;
	38	 41	 0.00036	 0.02519	 0.0	 500.0	 500.0	 500.0	 1.08671	 0.0	 1	 -30.0	 30.0;
	55	 56	 0.00034	 0.02097	 0.0	 500.0	 500.0	 500.0	 1.0755	 0.0	 1	 -30.0	 30.0;
	59	 61	 0.00034	 0.02097	 0.0	 500.0	 500.0	 500.0	 1.05955	 0.0	 1	 -30.0	 30.0;
	70	 72	 0.00081	 0.03	 0.0	 400.0	 400.0	 400.0	 1.0876	 0.0	 1	 -30.0	 30.0;
	107	 109	 0.00075	 0.02445	 -0.00832	 330.0	 330.0	 330.0	 1.06467	 0.0	 1	 -30.0	 30.0;
	108	 110	 0.0004	 0.0253	 0.0	 500.0	 500.0	 500.0	 1.07013	 0.0	 1	 -30.0	 30.0;
	144	 147	 0.00053	 0.02875	 -0.016	 400.0	 400.0	 400.0	 1.07702	 0.0	 1	 -30.0	 30.0;
	173	 174	 0.00064	 0.0305	 0.0	 400.0	 400.0	 400.0	 1.06172	 0.0	 1	 -30.0	 30.0;
	182	 183	 0.00023	 0.023	 0.0	 500.0	 500.0	 500.0	 1.07426	 0.0	 1	 -30.0	 30.0;
	181	 184	 0.00023	 0.023	 0.0	 500.0	 500.0	 500.0	 1.07426	 0.0	 1	 -30.0	 30.0;
	188	 187	 0.00032	 0.04392	 0.0	 330.0	 330.0	 330.0	 0.9999	 0.0	 1	 -30.0	 30.0;
	191	 193	 0.0003	 0.02732	 0.0	 500.0	 500.0	 500.0	 1.10871	 0.0	 1	 -30.0	 30.0;
	198	 200	 0.00035	 0.02375	 0.0	 500.0	 500.0	 500.0	 1.07313	 0.0	 1	 -30.0	 30.0;
	212	 213	 0.00051	 0.0275	 0.0	 400.0	 400.0	 400.0	 1.10394	 0.0	 1	 -30.0	 30.0;
	217	 215	 0.00084	 0.06858	 0.0	 250.0	 250.0	 250.0	 0.9999	 0.0	 1	 -30.0	 30.0;
	220	 222	 0.00033	 0.02711	 0.0	 500.0	 500.0	 500.0	 1.08613	 0.0	 1	 -30.0	 30.0;
	224	 222	 0.00032	 0.0464	 0.0	 330.0	 330.0	 330.0	 0.9999	 0.0	 1	 -30.0	 30.0;
	231	 229	 0.00113	 0.05647	 0.0	 330.0	 330.0	 330.0	 0.9999	 0.0	 1	 -30.0	 30.0;
	228	 230	 0.00075	 0.02469	 -0.008	 330.0	 330.0	 330.0	 1.04544	 0.0	 1	 -30.0	 30.0;
	3010	 183	 0.00029	 0.00317	 0.09184	 772	 772	 772	 0.0	 0.0	 1	 -30.0	 30.0;
	3010	 184	 0.0003	 0.00326	 0.09536	 770	 770	 770	 0.0	 0.0	 1	 -30.0	 30.0;
	244	 84	 0.01475	 0.08595	 0.13036	 314	 314	 314	 0.0	 0.0	 1	 -30.0	 30.0;
	3007	 92	 0.01244	 0.06959	 0.1181	 308	 308	 308	 0.0	 0.0	 1	 -30.0	 30.0;
	3007	 122	 0.01207	 0.06905	 0.11519	 311	 311	 311	 0.0	 0.0	 1	 -30.0	 30.0;
	146	 3008	 0.00168	 0.01604	 0.51488	 723	 723	 723	 0.0	 0.0	 1	 -30.0	 30.0;
	3011	 172	 0.0018	 0.01616	 0.0484	 386	 386	 386	 0.0	 0.0	 1	 -30.0	 30.0;
	3011	 173	 0.0018	 0.01616	 0.0484	 386	 386	 386	 0.0	 0.0	 1	 -30.0	 30.0;
	3012	 63	 0.00223	 0.02209	 0.69011	 736	 736	 736	 0.0	 0.0	 1	 -30.0	 30.0;
	3012	 64	 0.00223	 0.02209	 0.69011	 736	 736	 736	 0.0	 0.0	 1	 -30.0	 30.0;
	99	 3006	 0.00293	 0.03054	 0.95472	 754	 754	 754	 0.0	 0.0	 1	 -30.0	 30.0;
	58	 30	 0.01174	 0.07014	 0.12689	 318	 318	 318	 0.0	 0.0	 1	 -30.0	 30.0;
	37	 107	 0.00919	 0.06614	 0.10451	 347	 347	 347	 0.0	 0.0	 1	 -30.0	 30.0;
	38	 108	 0.00822	 0.05767	 0.0982	 343	 343	 343	 0.0	 0.0	 1	 -30.0	 30.0;
	169	 42	 0.01698	 0.12459	 0.1957	 255	 255	 255	 0.0	 0.0	 1	 -30.0	 30.0;
	155	 48	 0.01298	 0.06738	 0.10284	 297	 297	 297	 0.0	 0.0	 1	 -30.0	 30.0;
	154	 27	 0.01068	 0.0475	 0.09495	 276	 276	 276	 0.0	 0.0	 1	 -30.0	 30.0;
	191	 28	 0.01436	 0.10729	 0.16081	 297	 297	 297	 0.0	 0.0	 1	 -30.0	 30.0;
	55	 126	 0.01488	 0.08161	 0.1148	 305	 305	 305	 0.0	 0.0	 1	 -30.0	 30.0;
	54	 108	 0.01116	 0.07171	 0.10367	 329	 329	 329	 0.0	 0.0	 1	 -30.0	 30.0;
	207	 100	 0.00552	 0.05948	 0.17077	 421	 421	 421	 0.0	 0.0	 1	 -30.0	 30.0;
	238	 192	 0.01118	 0.06597	 0.10778	 316	 316	 316	 0.0	 0.0	 1	 -30.0	 30.0;
	226	 191	 0.01682	 0.08909	 0.12993	 300	 300	 300	 0.0	 0.0	 1	 -30.0	 30.0;
	225	 192	 0.01384	 0.08702	 0.13484	 326	 326	 326	 0.0	 0.0	 1	 -30.0	 30.0;
	242	 195	 0.01517	 0.09938	 0.14492	 274.0	 274.0	 274.0	 0.0	 0.0	 1	 -30.0	 30.0;
	59	 16	 0.01347	 0.07316	 0.13418	 304	 304	 304	 0.0	 0.0	 1	 -30.0	 30.0;
	233	 25	 0.01403	 0.10413	 0.15949	 306	 306	 306	 0.0	 0.0	 1	 -30.0	 30.0;
	117	 70	 0.00374	 0.0438	 0.10096	 438	 438	 438	 0.0	 0.0	 1	 -30.0	 30.0;
	190	 99	 0.00194	 0.02007	 0.54307	 752	 752	 752	 0.0	 0.0	 1	 -30.0	 30.0;
	60	 12	 0.0015	 0.01506	 0.4032	 741	 741	 741	 0.0	 0.0	 1	 -30.0	 30.0;
	214	 174	 0.00296	 0.03484	 0.9296	 799	 799	 799	 0.0	 0.0	 1	 -30.0	 30.0;
	138	 72	 0.00169	 0.01931	 0.53814	 788	 788	 788	 0.0	 0.0	 1	 -30.0	 30.0;
	41	 110	 0.00137	 0.01569	 0.43744	 789	 789	 789	 0.0	 0.0	 1	 -30.0	 30.0;
	40	 141	 0.00234	 0.02677	 0.74653	 789	 789	 789	 0.0	 0.0	 1	 -30.0	 30.0;
	34	 222	 0.00217	 0.02513	 0.67098	 793	 793	 793	 0.0	 0.0	 1	 -30.0	 30.0;
	138	 80	 0.00152	 0.01739	 0.48083	 789	 789	 789	 0.0	 0.0	 1	 -30.0	 30.0;
	140	 80	 0.00468	 0.05347	 1.48883	 536	 536	 536	 0.0	 0.0	 1	 -30.0	 30.0;
	99	 44	 0.00355	 0.03617	 0.95894	 746	 746	 746	 0.0	 0.0	 1	 -30.0	 30.0;
	109	 40	 0.00195	 0.02103	 0.5679	 767	 767	 767	 0.0	 0.0	 1	 -30.0	 30.0;
	63	 139	 0.00144	 0.01446	 0.51213	 741	 741	 741	 0.0	 0.0	 1	 -30.0	 30.0;
	14	 6	 0.013	 0.09781	 0.14013	 325	 325	 325	 0.0	 0.0	 1	 -30.0	 30.0;
	43	 14	 0.00525	 0.03847	 0.06053	 350	 350	 350	 0.0	 0.0	 1	 -30.0	 30.0;
	33	 6	 0.00457	 0.03351	 0.05245	 351	 351	 351	 0.0	 0.0	 1	 -30.0	 30.0;
	24	 9	 0.01469	 0.10915	 0.16676	 292	 292	 292	 0.0	 0.0	 1	 -30.0	 30.0;
	29	 16	 0.01262	 0.09326	 0.14324	 341	 341	 341	 0.0	 0.0	 1	 -30.0	 30.0;
	37	 7	 0.00924	 0.05052	 0.07698	 305	 305	 305	 0.0	 0.0	 1	 -30.0	 30.0;
	24	 3	 0.01068	 0.07936	 0.12155	 274.0	 274.0	 274.0	 0.0	 0.0	 1	 -30.0	 30.0;
	37	 27	 0.00585	 0.04027	 0.07161	 340	 340	 340	 0.0	 0.0	 1	 -30.0	 30.0;
	39	 26	 0.00585	 0.04027	 0.07161	 340	 340	 340	 0.0	 0.0	 1	 -30.0	 30.0;
	15	 8	 0.00558	 0.04147	 0.0629	 353	 353	 353	 0.0	 0.0	 1	 -30.0	 30.0;
	46	 14	 0.00089	 0.0063	 0.0108	 345	 345	 345	 0.0	 0.0	 1	 -30.0	 30.0;
	31	 15	 0.00442	 0.02374	 0.04477	 302	 302	 302	 0.0	 0.0	 1	 -30.0	 30.0;
	47	 7	 0.00494	 0.0269	 0.04225	 304	 304	 304	 0.0	 0.0	 1	 -30.0	 30.0;
	26	 6	 0.00287	 0.01671	 0.02467	 314	 314	 314	 0.0	 0.0	 1	 -30.0	 30.0;
	37	 1	 0.0012	 0.0089	 0.01512	 352	 352	 352	 0.0	 0.0	 1	 -30.0	 30.0;
	39	 2	 0.0012	 0.0089	 0.01513	 352	 352	 352	 0.0	 0.0	 1	 -30.0	 30.0;
	38	 32	 0.00399	 0.02901	 0.04808	 349	 349	 349	 0.0	 0.0	 1	 -30.0	 30.0;
	34	 12	 0.00298	 0.03445	 0.94221	 793	 793	 793	 0.0	 0.0	 1	 -30.0	 30.0;
	40	 34	 0.00358	 0.04122	 1.13382	 695	 695	 695	 0.0	 0.0	 1	 -30.0	 30.0;
	20	 41	 0.00342	 0.03928	 1.08288	 729	 729	 729	 0.0	 0.0	 1	 -30.0	 30.0;
	11	 22	 0.00286	 0.0335	 0.89392	 798	 798	 798	 0.0	 0.0	 1	 -30.0	 30.0;
	11	 20	 0.0011	 0.01259	 0.3496	 789	 789	 789	 0.0	 0.0	 1	 -30.0	 30.0;
	44	 41	 0.00076	 0.00868	 0.24096	 788	 788	 788	 0.0	 0.0	 1	 -30.0	 30.0;
	79	 74	 0.01054	 0.06151	 0.09306	 314	 314	 314	 0.0	 0.0	 1	 -30.0	 30.0;
...